gem5 Simulator System.  http://gem5.org
gem5 is copyrighted software; use the --copyright option for details.

gem5 compiled Dec  5 2017 00:08:03
gem5 started Dec  5 2017 01:11:23
gem5 executing on phicrow, pid 11608
command line: build/ARM/gem5.fast -d m5out/step4 ./configs/example/se.py --caches --l2cache --cpu-type=O3_ARM_v7a_3 -c ../benchmark/microbench/Step4 -o '5 2'

Global frequency set at 1000000000000 ticks per second
**** REAL SIMULATION ****
Exiting @ tick 208015330000 because exiting with last active thread context
