gem5 Simulator System.  http://gem5.org
gem5 is copyrighted software; use the --copyright option for details.

gem5 compiled Dec  6 2017 01:08:45
gem5 started Dec  6 2017 02:20:36
gem5 executing on phicrow, pid 24219
command line: build/ARM/gem5.fast -d m5out/step5 ./configs/example/se.py --caches --l2cache --cpu-type=O3_ARM_v7a_3 -c ../benchmark/microbench/Step5 -o 6

Global frequency set at 1000000000000 ticks per second
**** REAL SIMULATION ****
Define patterns lengthExiting @ tick 170858499500 because exiting with last active thread context
