gem5 Simulator System.  http://gem5.org
gem5 is copyrighted software; use the --copyright option for details.

gem5 compiled Dec  5 2017 12:08:01
gem5 started Dec  5 2017 14:23:35
gem5 executing on vikram-Lenovo-ideapad-720S-14IKB, pid 16303
command line: build/ARM/gem5.fast -d m5out/step10 ./configs/example/se.py --caches --l2cache --cpu-type=O3_ARM_v7a_3 -c ../benchmark/microbench/Step10

Global frequency set at 1000000000000 ticks per second
**** REAL SIMULATION ****
Map Size (X,Y): 60,60
Start: 29,31
Finish: 31,29
Time to calculate the route (ms): 54568
Route:
2222222222222222222217777777777777777777777544444444444444444444

............................................................
............................................................
............................................................
............................................................
............................................................
............................................................
............................................................
..............................O.............................
..............................O.............................
..............................O.............................
..............................O.............................
..............................O.............................
..............................O.............................
..............................O.............................
..............................O.............................
..............................O.............................
..............................O.............................
..............................O.............................
..............................O.............................
..............................O.............................
..............................O.............................
..............................O.............................
..............................O.............................
..............................O.............................
..............................O.............................
..............................O.............................
..............................O.............................
..............................O.............................
..............................O.............................
..............................OFRRRRRRRRRRRRRRRRRRRR........
.......OOOOOOOOOOOOOOOOOOOOOOOOOOOOOOOOOOOOOOOOOOOOOR.......
.............................SO....................R........
.............................RO...................R.........
.............................RO..................R..........
.............................RO.................R...........
.............................RO................R............
.............................RO...............R.............
.............................RO..............R..............
.............................RO.............R...............
.............................RO............R................
.............................RO...........R.................
.............................RO..........R..................
.............................RO.........R...................
.............................RO........R....................
.............................RO.......R.....................
.............................RO......R......................
.............................RO.....R.......................
.............................RO....R........................
.............................RO...R.........................
.............................RO..R..........................
.............................RO.R...........................
.............................ROR............................
..............................R.............................
............................................................
............................................................
............................................................
............................................................
............................................................
............................................................
............................................................
Exiting @ tick 55113050000 because exiting with last active thread context
