
---------- Begin Simulation Statistics ----------
sim_seconds                                  0.095906                       # Number of seconds simulated
sim_ticks                                 95906236000                       # Number of ticks simulated
final_tick                                95906236000                       # Number of ticks from beginning of simulation (restored from checkpoints and never reset)
sim_freq                                 1000000000000                       # Frequency of simulated ticks
host_inst_rate                                 345542                       # Simulator instruction rate (inst/s)
host_op_rate                                   369793                       # Simulator op (including micro ops) rate (op/s)
host_tick_rate                              134202658                       # Simulator tick rate (ticks/s)
host_mem_usage                                 671140                       # Number of bytes of host memory used
host_seconds                                   714.64                       # Real time elapsed on the host
sim_insts                                   246937009                       # Number of instructions simulated
sim_ops                                     264267979                       # Number of ops (including micro ops) simulated
system.voltage_domain.voltage                       1                       # Voltage in Volts
system.clk_domain.clock                          1000                       # Clock period in ticks
system.mem_ctrls.pwrStateResidencyTicks::UNDEFINED  95906236000                       # Cumulative time (in ticks) in various power states
system.mem_ctrls.bytes_read::cpu.inst           25792                       # Number of bytes read from this memory
system.mem_ctrls.bytes_read::cpu.data           11968                       # Number of bytes read from this memory
system.mem_ctrls.bytes_read::l2.prefetcher         3008                       # Number of bytes read from this memory
system.mem_ctrls.bytes_read::total              40768                       # Number of bytes read from this memory
system.mem_ctrls.bytes_inst_read::cpu.inst        25792                       # Number of instructions bytes read from this memory
system.mem_ctrls.bytes_inst_read::total         25792                       # Number of instructions bytes read from this memory
system.mem_ctrls.num_reads::cpu.inst              403                       # Number of read requests responded to by this memory
system.mem_ctrls.num_reads::cpu.data              187                       # Number of read requests responded to by this memory
system.mem_ctrls.num_reads::l2.prefetcher           47                       # Number of read requests responded to by this memory
system.mem_ctrls.num_reads::total                 637                       # Number of read requests responded to by this memory
system.mem_ctrls.bw_read::cpu.inst             268929                       # Total read bandwidth from this memory (bytes/s)
system.mem_ctrls.bw_read::cpu.data             124789                       # Total read bandwidth from this memory (bytes/s)
system.mem_ctrls.bw_read::l2.prefetcher         31364                       # Total read bandwidth from this memory (bytes/s)
system.mem_ctrls.bw_read::total                425082                       # Total read bandwidth from this memory (bytes/s)
system.mem_ctrls.bw_inst_read::cpu.inst        268929                       # Instruction read bandwidth from this memory (bytes/s)
system.mem_ctrls.bw_inst_read::total           268929                       # Instruction read bandwidth from this memory (bytes/s)
system.mem_ctrls.bw_total::cpu.inst            268929                       # Total bandwidth to/from this memory (bytes/s)
system.mem_ctrls.bw_total::cpu.data            124789                       # Total bandwidth to/from this memory (bytes/s)
system.mem_ctrls.bw_total::l2.prefetcher        31364                       # Total bandwidth to/from this memory (bytes/s)
system.mem_ctrls.bw_total::total               425082                       # Total bandwidth to/from this memory (bytes/s)
system.mem_ctrls.readReqs                         637                       # Number of read requests accepted
system.mem_ctrls.writeReqs                          0                       # Number of write requests accepted
system.mem_ctrls.readBursts                       637                       # Number of DRAM read bursts, including those serviced by the write queue
system.mem_ctrls.writeBursts                        0                       # Number of DRAM write bursts, including those merged in the write queue
system.mem_ctrls.bytesReadDRAM                  40768                       # Total number of bytes read from DRAM
system.mem_ctrls.bytesReadWrQ                       0                       # Total number of bytes read from write queue
system.mem_ctrls.bytesWritten                       0                       # Total number of bytes written to DRAM
system.mem_ctrls.bytesReadSys                   40768                       # Total read bytes from the system interface side
system.mem_ctrls.bytesWrittenSys                    0                       # Total written bytes from the system interface side
system.mem_ctrls.servicedByWrQ                      0                       # Number of DRAM read bursts serviced by the write queue
system.mem_ctrls.mergedWrBursts                     0                       # Number of DRAM write bursts merged with an existing one
system.mem_ctrls.neitherReadNorWriteReqs            0                       # Number of requests that are neither read nor write
system.mem_ctrls.perBankRdBursts::0                90                       # Per bank write bursts
system.mem_ctrls.perBankRdBursts::1                 5                       # Per bank write bursts
system.mem_ctrls.perBankRdBursts::2                13                       # Per bank write bursts
system.mem_ctrls.perBankRdBursts::3                71                       # Per bank write bursts
system.mem_ctrls.perBankRdBursts::4                20                       # Per bank write bursts
system.mem_ctrls.perBankRdBursts::5                32                       # Per bank write bursts
system.mem_ctrls.perBankRdBursts::6                25                       # Per bank write bursts
system.mem_ctrls.perBankRdBursts::7                38                       # Per bank write bursts
system.mem_ctrls.perBankRdBursts::8                23                       # Per bank write bursts
system.mem_ctrls.perBankRdBursts::9                22                       # Per bank write bursts
system.mem_ctrls.perBankRdBursts::10               20                       # Per bank write bursts
system.mem_ctrls.perBankRdBursts::11               12                       # Per bank write bursts
system.mem_ctrls.perBankRdBursts::12              104                       # Per bank write bursts
system.mem_ctrls.perBankRdBursts::13               19                       # Per bank write bursts
system.mem_ctrls.perBankRdBursts::14               47                       # Per bank write bursts
system.mem_ctrls.perBankRdBursts::15               96                       # Per bank write bursts
system.mem_ctrls.perBankWrBursts::0                 0                       # Per bank write bursts
system.mem_ctrls.perBankWrBursts::1                 0                       # Per bank write bursts
system.mem_ctrls.perBankWrBursts::2                 0                       # Per bank write bursts
system.mem_ctrls.perBankWrBursts::3                 0                       # Per bank write bursts
system.mem_ctrls.perBankWrBursts::4                 0                       # Per bank write bursts
system.mem_ctrls.perBankWrBursts::5                 0                       # Per bank write bursts
system.mem_ctrls.perBankWrBursts::6                 0                       # Per bank write bursts
system.mem_ctrls.perBankWrBursts::7                 0                       # Per bank write bursts
system.mem_ctrls.perBankWrBursts::8                 0                       # Per bank write bursts
system.mem_ctrls.perBankWrBursts::9                 0                       # Per bank write bursts
system.mem_ctrls.perBankWrBursts::10                0                       # Per bank write bursts
system.mem_ctrls.perBankWrBursts::11                0                       # Per bank write bursts
system.mem_ctrls.perBankWrBursts::12                0                       # Per bank write bursts
system.mem_ctrls.perBankWrBursts::13                0                       # Per bank write bursts
system.mem_ctrls.perBankWrBursts::14                0                       # Per bank write bursts
system.mem_ctrls.perBankWrBursts::15                0                       # Per bank write bursts
system.mem_ctrls.numRdRetry                         0                       # Number of times read queue was full causing retry
system.mem_ctrls.numWrRetry                         0                       # Number of times write queue was full causing retry
system.mem_ctrls.totGap                   95906142000                       # Total gap between requests
system.mem_ctrls.readPktSize::0                     0                       # Read request sizes (log2)
system.mem_ctrls.readPktSize::1                     0                       # Read request sizes (log2)
system.mem_ctrls.readPktSize::2                     0                       # Read request sizes (log2)
system.mem_ctrls.readPktSize::3                     0                       # Read request sizes (log2)
system.mem_ctrls.readPktSize::4                     0                       # Read request sizes (log2)
system.mem_ctrls.readPktSize::5                     0                       # Read request sizes (log2)
system.mem_ctrls.readPktSize::6                   637                       # Read request sizes (log2)
system.mem_ctrls.writePktSize::0                    0                       # Write request sizes (log2)
system.mem_ctrls.writePktSize::1                    0                       # Write request sizes (log2)
system.mem_ctrls.writePktSize::2                    0                       # Write request sizes (log2)
system.mem_ctrls.writePktSize::3                    0                       # Write request sizes (log2)
system.mem_ctrls.writePktSize::4                    0                       # Write request sizes (log2)
system.mem_ctrls.writePktSize::5                    0                       # Write request sizes (log2)
system.mem_ctrls.writePktSize::6                    0                       # Write request sizes (log2)
system.mem_ctrls.rdQLenPdf::0                     332                       # What read queue length does an incoming req see
system.mem_ctrls.rdQLenPdf::1                     182                       # What read queue length does an incoming req see
system.mem_ctrls.rdQLenPdf::2                      69                       # What read queue length does an incoming req see
system.mem_ctrls.rdQLenPdf::3                      20                       # What read queue length does an incoming req see
system.mem_ctrls.rdQLenPdf::4                      12                       # What read queue length does an incoming req see
system.mem_ctrls.rdQLenPdf::5                       6                       # What read queue length does an incoming req see
system.mem_ctrls.rdQLenPdf::6                       3                       # What read queue length does an incoming req see
system.mem_ctrls.rdQLenPdf::7                       3                       # What read queue length does an incoming req see
system.mem_ctrls.rdQLenPdf::8                       4                       # What read queue length does an incoming req see
system.mem_ctrls.rdQLenPdf::9                       2                       # What read queue length does an incoming req see
system.mem_ctrls.rdQLenPdf::10                      2                       # What read queue length does an incoming req see
system.mem_ctrls.rdQLenPdf::11                      1                       # What read queue length does an incoming req see
system.mem_ctrls.rdQLenPdf::12                      1                       # What read queue length does an incoming req see
system.mem_ctrls.rdQLenPdf::13                      0                       # What read queue length does an incoming req see
system.mem_ctrls.rdQLenPdf::14                      0                       # What read queue length does an incoming req see
system.mem_ctrls.rdQLenPdf::15                      0                       # What read queue length does an incoming req see
system.mem_ctrls.rdQLenPdf::16                      0                       # What read queue length does an incoming req see
system.mem_ctrls.rdQLenPdf::17                      0                       # What read queue length does an incoming req see
system.mem_ctrls.rdQLenPdf::18                      0                       # What read queue length does an incoming req see
system.mem_ctrls.rdQLenPdf::19                      0                       # What read queue length does an incoming req see
system.mem_ctrls.rdQLenPdf::20                      0                       # What read queue length does an incoming req see
system.mem_ctrls.rdQLenPdf::21                      0                       # What read queue length does an incoming req see
system.mem_ctrls.rdQLenPdf::22                      0                       # What read queue length does an incoming req see
system.mem_ctrls.rdQLenPdf::23                      0                       # What read queue length does an incoming req see
system.mem_ctrls.rdQLenPdf::24                      0                       # What read queue length does an incoming req see
system.mem_ctrls.rdQLenPdf::25                      0                       # What read queue length does an incoming req see
system.mem_ctrls.rdQLenPdf::26                      0                       # What read queue length does an incoming req see
system.mem_ctrls.rdQLenPdf::27                      0                       # What read queue length does an incoming req see
system.mem_ctrls.rdQLenPdf::28                      0                       # What read queue length does an incoming req see
system.mem_ctrls.rdQLenPdf::29                      0                       # What read queue length does an incoming req see
system.mem_ctrls.rdQLenPdf::30                      0                       # What read queue length does an incoming req see
system.mem_ctrls.rdQLenPdf::31                      0                       # What read queue length does an incoming req see
system.mem_ctrls.wrQLenPdf::0                       0                       # What write queue length does an incoming req see
system.mem_ctrls.wrQLenPdf::1                       0                       # What write queue length does an incoming req see
system.mem_ctrls.wrQLenPdf::2                       0                       # What write queue length does an incoming req see
system.mem_ctrls.wrQLenPdf::3                       0                       # What write queue length does an incoming req see
system.mem_ctrls.wrQLenPdf::4                       0                       # What write queue length does an incoming req see
system.mem_ctrls.wrQLenPdf::5                       0                       # What write queue length does an incoming req see
system.mem_ctrls.wrQLenPdf::6                       0                       # What write queue length does an incoming req see
system.mem_ctrls.wrQLenPdf::7                       0                       # What write queue length does an incoming req see
system.mem_ctrls.wrQLenPdf::8                       0                       # What write queue length does an incoming req see
system.mem_ctrls.wrQLenPdf::9                       0                       # What write queue length does an incoming req see
system.mem_ctrls.wrQLenPdf::10                      0                       # What write queue length does an incoming req see
system.mem_ctrls.wrQLenPdf::11                      0                       # What write queue length does an incoming req see
system.mem_ctrls.wrQLenPdf::12                      0                       # What write queue length does an incoming req see
system.mem_ctrls.wrQLenPdf::13                      0                       # What write queue length does an incoming req see
system.mem_ctrls.wrQLenPdf::14                      0                       # What write queue length does an incoming req see
system.mem_ctrls.wrQLenPdf::15                      0                       # What write queue length does an incoming req see
system.mem_ctrls.wrQLenPdf::16                      0                       # What write queue length does an incoming req see
system.mem_ctrls.wrQLenPdf::17                      0                       # What write queue length does an incoming req see
system.mem_ctrls.wrQLenPdf::18                      0                       # What write queue length does an incoming req see
system.mem_ctrls.wrQLenPdf::19                      0                       # What write queue length does an incoming req see
system.mem_ctrls.wrQLenPdf::20                      0                       # What write queue length does an incoming req see
system.mem_ctrls.wrQLenPdf::21                      0                       # What write queue length does an incoming req see
system.mem_ctrls.wrQLenPdf::22                      0                       # What write queue length does an incoming req see
system.mem_ctrls.wrQLenPdf::23                      0                       # What write queue length does an incoming req see
system.mem_ctrls.wrQLenPdf::24                      0                       # What write queue length does an incoming req see
system.mem_ctrls.wrQLenPdf::25                      0                       # What write queue length does an incoming req see
system.mem_ctrls.wrQLenPdf::26                      0                       # What write queue length does an incoming req see
system.mem_ctrls.wrQLenPdf::27                      0                       # What write queue length does an incoming req see
system.mem_ctrls.wrQLenPdf::28                      0                       # What write queue length does an incoming req see
system.mem_ctrls.wrQLenPdf::29                      0                       # What write queue length does an incoming req see
system.mem_ctrls.wrQLenPdf::30                      0                       # What write queue length does an incoming req see
system.mem_ctrls.wrQLenPdf::31                      0                       # What write queue length does an incoming req see
system.mem_ctrls.wrQLenPdf::32                      0                       # What write queue length does an incoming req see
system.mem_ctrls.wrQLenPdf::33                      0                       # What write queue length does an incoming req see
system.mem_ctrls.wrQLenPdf::34                      0                       # What write queue length does an incoming req see
system.mem_ctrls.wrQLenPdf::35                      0                       # What write queue length does an incoming req see
system.mem_ctrls.wrQLenPdf::36                      0                       # What write queue length does an incoming req see
system.mem_ctrls.wrQLenPdf::37                      0                       # What write queue length does an incoming req see
system.mem_ctrls.wrQLenPdf::38                      0                       # What write queue length does an incoming req see
system.mem_ctrls.wrQLenPdf::39                      0                       # What write queue length does an incoming req see
system.mem_ctrls.wrQLenPdf::40                      0                       # What write queue length does an incoming req see
system.mem_ctrls.wrQLenPdf::41                      0                       # What write queue length does an incoming req see
system.mem_ctrls.wrQLenPdf::42                      0                       # What write queue length does an incoming req see
system.mem_ctrls.wrQLenPdf::43                      0                       # What write queue length does an incoming req see
system.mem_ctrls.wrQLenPdf::44                      0                       # What write queue length does an incoming req see
system.mem_ctrls.wrQLenPdf::45                      0                       # What write queue length does an incoming req see
system.mem_ctrls.wrQLenPdf::46                      0                       # What write queue length does an incoming req see
system.mem_ctrls.wrQLenPdf::47                      0                       # What write queue length does an incoming req see
system.mem_ctrls.wrQLenPdf::48                      0                       # What write queue length does an incoming req see
system.mem_ctrls.wrQLenPdf::49                      0                       # What write queue length does an incoming req see
system.mem_ctrls.wrQLenPdf::50                      0                       # What write queue length does an incoming req see
system.mem_ctrls.wrQLenPdf::51                      0                       # What write queue length does an incoming req see
system.mem_ctrls.wrQLenPdf::52                      0                       # What write queue length does an incoming req see
system.mem_ctrls.wrQLenPdf::53                      0                       # What write queue length does an incoming req see
system.mem_ctrls.wrQLenPdf::54                      0                       # What write queue length does an incoming req see
system.mem_ctrls.wrQLenPdf::55                      0                       # What write queue length does an incoming req see
system.mem_ctrls.wrQLenPdf::56                      0                       # What write queue length does an incoming req see
system.mem_ctrls.wrQLenPdf::57                      0                       # What write queue length does an incoming req see
system.mem_ctrls.wrQLenPdf::58                      0                       # What write queue length does an incoming req see
system.mem_ctrls.wrQLenPdf::59                      0                       # What write queue length does an incoming req see
system.mem_ctrls.wrQLenPdf::60                      0                       # What write queue length does an incoming req see
system.mem_ctrls.wrQLenPdf::61                      0                       # What write queue length does an incoming req see
system.mem_ctrls.wrQLenPdf::62                      0                       # What write queue length does an incoming req see
system.mem_ctrls.wrQLenPdf::63                      0                       # What write queue length does an incoming req see
system.mem_ctrls.bytesPerActivate::samples          145                       # Bytes accessed per row activation
system.mem_ctrls.bytesPerActivate::mean    261.737931                       # Bytes accessed per row activation
system.mem_ctrls.bytesPerActivate::gmean   161.537555                       # Bytes accessed per row activation
system.mem_ctrls.bytesPerActivate::stdev   287.991826                       # Bytes accessed per row activation
system.mem_ctrls.bytesPerActivate::0-127           57     39.31%     39.31% # Bytes accessed per row activation
system.mem_ctrls.bytesPerActivate::128-255           41     28.28%     67.59% # Bytes accessed per row activation
system.mem_ctrls.bytesPerActivate::256-383           16     11.03%     78.62% # Bytes accessed per row activation
system.mem_ctrls.bytesPerActivate::384-511            4      2.76%     81.38% # Bytes accessed per row activation
system.mem_ctrls.bytesPerActivate::512-639            7      4.83%     86.21% # Bytes accessed per row activation
system.mem_ctrls.bytesPerActivate::640-767            4      2.76%     88.97% # Bytes accessed per row activation
system.mem_ctrls.bytesPerActivate::768-895            4      2.76%     91.72% # Bytes accessed per row activation
system.mem_ctrls.bytesPerActivate::896-1023            1      0.69%     92.41% # Bytes accessed per row activation
system.mem_ctrls.bytesPerActivate::1024-1151           11      7.59%    100.00% # Bytes accessed per row activation
system.mem_ctrls.bytesPerActivate::total          145                       # Bytes accessed per row activation
system.mem_ctrls.totQLat                     24139250                       # Total ticks spent queuing
system.mem_ctrls.totMemAccLat                36083000                       # Total ticks spent from burst creation until serviced by the DRAM
system.mem_ctrls.totBusLat                    3185000                       # Total ticks spent in databus transfers
system.mem_ctrls.avgQLat                     37895.21                       # Average queueing delay per DRAM burst
system.mem_ctrls.avgBusLat                    5000.00                       # Average bus latency per DRAM burst
system.mem_ctrls.avgMemAccLat                56645.21                       # Average memory access latency per DRAM burst
system.mem_ctrls.avgRdBW                         0.43                       # Average DRAM read bandwidth in MiByte/s
system.mem_ctrls.avgWrBW                         0.00                       # Average achieved write bandwidth in MiByte/s
system.mem_ctrls.avgRdBWSys                      0.43                       # Average system read bandwidth in MiByte/s
system.mem_ctrls.avgWrBWSys                      0.00                       # Average system write bandwidth in MiByte/s
system.mem_ctrls.peakBW                      12800.00                       # Theoretical peak bandwidth in MiByte/s
system.mem_ctrls.busUtil                         0.00                       # Data bus utilization in percentage
system.mem_ctrls.busUtilRead                     0.00                       # Data bus utilization in percentage for reads
system.mem_ctrls.busUtilWrite                    0.00                       # Data bus utilization in percentage for writes
system.mem_ctrls.avgRdQLen                       2.05                       # Average read queue length when enqueuing
system.mem_ctrls.avgWrQLen                       0.00                       # Average write queue length when enqueuing
system.mem_ctrls.readRowHits                      482                       # Number of row buffer hits during reads
system.mem_ctrls.writeRowHits                       0                       # Number of row buffer hits during writes
system.mem_ctrls.readRowHitRate                 75.67                       # Row buffer hit rate for reads
system.mem_ctrls.writeRowHitRate                  nan                       # Row buffer hit rate for writes
system.mem_ctrls.avgGap                  150559092.62                       # Average gap between requests
system.mem_ctrls.pageHitRate                    75.67                       # Row buffer hit rate, read and write combined
system.mem_ctrls_0.actEnergy                   421260                       # Energy for activate commands per rank (pJ)
system.mem_ctrls_0.preEnergy                   204930                       # Energy for precharge commands per rank (pJ)
system.mem_ctrls_0.readEnergy                 2099160                       # Energy for read commands per rank (pJ)
system.mem_ctrls_0.writeEnergy                      0                       # Energy for write commands per rank (pJ)
system.mem_ctrls_0.refreshEnergy         6761040.000000                       # Energy for refresh commands per rank (pJ)
system.mem_ctrls_0.actBackEnergy              4541760                       # Energy for active background per rank (pJ)
system.mem_ctrls_0.preBackEnergy               447360                       # Energy for precharge background per rank (pJ)
system.mem_ctrls_0.actPowerDownEnergy        15469230                       # Energy for active power-down per rank (pJ)
system.mem_ctrls_0.prePowerDownEnergy         8769600                       # Energy for precharge power-down per rank (pJ)
system.mem_ctrls_0.selfRefreshEnergy      23002860720                       # Energy for self refresh per rank (pJ)
system.mem_ctrls_0.totalEnergy            23041575060                       # Total energy per rank (pJ)
system.mem_ctrls_0.averagePower            240.251061                       # Core power per rank (mW)
system.mem_ctrls_0.totalIdleTime          95894962500                       # Total Idle time Per DRAM Rank
system.mem_ctrls_0.memoryStateTime::IDLE       835000                       # Time in different power states
system.mem_ctrls_0.memoryStateTime::REF       2878000                       # Time in different power states
system.mem_ctrls_0.memoryStateTime::SREF  95838350000                       # Time in different power states
system.mem_ctrls_0.memoryStateTime::PRE_PDN     22837000                       # Time in different power states
system.mem_ctrls_0.memoryStateTime::ACT       7417250                       # Time in different power states
system.mem_ctrls_0.memoryStateTime::ACT_PDN     33918750                       # Time in different power states
system.mem_ctrls_1.actEnergy                   685440                       # Energy for activate commands per rank (pJ)
system.mem_ctrls_1.preEnergy                   345345                       # Energy for precharge commands per rank (pJ)
system.mem_ctrls_1.readEnergy                 2449020                       # Energy for read commands per rank (pJ)
system.mem_ctrls_1.writeEnergy                      0                       # Energy for write commands per rank (pJ)
system.mem_ctrls_1.refreshEnergy         23356320.000000                       # Energy for refresh commands per rank (pJ)
system.mem_ctrls_1.actBackEnergy              8005650                       # Energy for active background per rank (pJ)
system.mem_ctrls_1.preBackEnergy              1599840                       # Energy for precharge background per rank (pJ)
system.mem_ctrls_1.actPowerDownEnergy        45690630                       # Energy for active power-down per rank (pJ)
system.mem_ctrls_1.prePowerDownEnergy        34590240                       # Energy for precharge power-down per rank (pJ)
system.mem_ctrls_1.selfRefreshEnergy      22973243580                       # Energy for self refresh per rank (pJ)
system.mem_ctrls_1.totalEnergy            23089966065                       # Total energy per rank (pJ)
system.mem_ctrls_1.averagePower            240.755627                       # Core power per rank (mW)
system.mem_ctrls_1.totalIdleTime          95884445750                       # Total Idle time Per DRAM Rank
system.mem_ctrls_1.memoryStateTime::IDLE      3349000                       # Time in different power states
system.mem_ctrls_1.memoryStateTime::REF       9952000                       # Time in different power states
system.mem_ctrls_1.memoryStateTime::SREF  95694237000                       # Time in different power states
system.mem_ctrls_1.memoryStateTime::PRE_PDN     90080500                       # Time in different power states
system.mem_ctrls_1.memoryStateTime::ACT       8421000                       # Time in different power states
system.mem_ctrls_1.memoryStateTime::ACT_PDN    100196500                       # Time in different power states
system.pwrStateResidencyTicks::UNDEFINED  95906236000                       # Cumulative time (in ticks) in various power states
system.cpu.branchPred.lookups                37077445                       # Number of BP lookups
system.cpu.branchPred.condPredicted           8993165                       # Number of conditional branches predicted
system.cpu.branchPred.condIncorrect           2918129                       # Number of conditional branches incorrect
system.cpu.branchPred.BTBLookups             23674786                       # Number of BTB lookups
system.cpu.branchPred.BTBHits                23671828                       # Number of BTB hits
system.cpu.branchPred.BTBCorrect                    0                       # Number of correct BTB predictions (this stat may not work properly.
system.cpu.branchPred.BTBHitPct             99.987506                       # BTB Hit Percentage
system.cpu.branchPred.usedRAS                12300810                       # Number of times the RAS was used to get a target.
system.cpu.branchPred.RASInCorrect                  0                       # Number of incorrect RAS predictions.
system.cpu.branchPred.indirectLookups             548                       # Number of indirect predictor lookups.
system.cpu.branchPred.indirectHits                362                       # Number of indirect target hits.
system.cpu.branchPred.indirectMisses              186                       # Number of indirect misses.
system.cpu.branchPredindirectMispredicted           76                       # Number of mispredicted indirect branches.
system.cpu.branchPred.atLeastOneCorrectExpert      1470281                       # Number of mispredicts where there was at least one correct not-selected scheme.
system.cpu.branchPred.allExpertsSame         23996998                       # Number of times all experts voted in the same direction.
system.cpu.branchPred.lowWeightExpertsWon       984833                       # Number of times where lower weighted experts overrode the highest weight expert.
system.cpu_voltage_domain.voltage                   1                       # Voltage in Volts
system.cpu_clk_domain.clock                       500                       # Clock period in ticks
system.cpu.dstage2_mmu.stage2_tlb.walker.pwrStateResidencyTicks::UNDEFINED  95906236000                       # Cumulative time (in ticks) in various power states
system.cpu.dstage2_mmu.stage2_tlb.walker.walks            0                       # Table walker walks requested
system.cpu.dstage2_mmu.stage2_tlb.walker.walkRequestOrigin_Requested::Data            0                       # Table walker requests started/completed, data/inst
system.cpu.dstage2_mmu.stage2_tlb.walker.walkRequestOrigin_Requested::Inst            0                       # Table walker requests started/completed, data/inst
system.cpu.dstage2_mmu.stage2_tlb.walker.walkRequestOrigin_Requested::total            0                       # Table walker requests started/completed, data/inst
system.cpu.dstage2_mmu.stage2_tlb.walker.walkRequestOrigin_Completed::Data            0                       # Table walker requests started/completed, data/inst
system.cpu.dstage2_mmu.stage2_tlb.walker.walkRequestOrigin_Completed::Inst            0                       # Table walker requests started/completed, data/inst
system.cpu.dstage2_mmu.stage2_tlb.walker.walkRequestOrigin_Completed::total            0                       # Table walker requests started/completed, data/inst
system.cpu.dstage2_mmu.stage2_tlb.walker.walkRequestOrigin::total            0                       # Table walker requests started/completed, data/inst
system.cpu.dstage2_mmu.stage2_tlb.inst_hits            0                       # ITB inst hits
system.cpu.dstage2_mmu.stage2_tlb.inst_misses            0                       # ITB inst misses
system.cpu.dstage2_mmu.stage2_tlb.read_hits            0                       # DTB read hits
system.cpu.dstage2_mmu.stage2_tlb.read_misses            0                       # DTB read misses
system.cpu.dstage2_mmu.stage2_tlb.write_hits            0                       # DTB write hits
system.cpu.dstage2_mmu.stage2_tlb.write_misses            0                       # DTB write misses
system.cpu.dstage2_mmu.stage2_tlb.flush_tlb            0                       # Number of times complete TLB was flushed
system.cpu.dstage2_mmu.stage2_tlb.flush_tlb_mva            0                       # Number of times TLB was flushed by MVA
system.cpu.dstage2_mmu.stage2_tlb.flush_tlb_mva_asid            0                       # Number of times TLB was flushed by MVA & ASID
system.cpu.dstage2_mmu.stage2_tlb.flush_tlb_asid            0                       # Number of times TLB was flushed by ASID
system.cpu.dstage2_mmu.stage2_tlb.flush_entries            0                       # Number of entries that have been flushed from TLB
system.cpu.dstage2_mmu.stage2_tlb.align_faults            0                       # Number of TLB faults due to alignment restrictions
system.cpu.dstage2_mmu.stage2_tlb.prefetch_faults            0                       # Number of TLB faults due to prefetch
system.cpu.dstage2_mmu.stage2_tlb.domain_faults            0                       # Number of TLB faults due to domain restrictions
system.cpu.dstage2_mmu.stage2_tlb.perms_faults            0                       # Number of TLB faults due to permissions restrictions
system.cpu.dstage2_mmu.stage2_tlb.read_accesses            0                       # DTB read accesses
system.cpu.dstage2_mmu.stage2_tlb.write_accesses            0                       # DTB write accesses
system.cpu.dstage2_mmu.stage2_tlb.inst_accesses            0                       # ITB inst accesses
system.cpu.dstage2_mmu.stage2_tlb.hits              0                       # DTB hits
system.cpu.dstage2_mmu.stage2_tlb.misses            0                       # DTB misses
system.cpu.dstage2_mmu.stage2_tlb.accesses            0                       # DTB accesses
system.cpu.dtb.walker.pwrStateResidencyTicks::UNDEFINED  95906236000                       # Cumulative time (in ticks) in various power states
system.cpu.dtb.walker.walks                         0                       # Table walker walks requested
system.cpu.dtb.walker.walkRequestOrigin_Requested::Data            0                       # Table walker requests started/completed, data/inst
system.cpu.dtb.walker.walkRequestOrigin_Requested::Inst            0                       # Table walker requests started/completed, data/inst
system.cpu.dtb.walker.walkRequestOrigin_Requested::total            0                       # Table walker requests started/completed, data/inst
system.cpu.dtb.walker.walkRequestOrigin_Completed::Data            0                       # Table walker requests started/completed, data/inst
system.cpu.dtb.walker.walkRequestOrigin_Completed::Inst            0                       # Table walker requests started/completed, data/inst
system.cpu.dtb.walker.walkRequestOrigin_Completed::total            0                       # Table walker requests started/completed, data/inst
system.cpu.dtb.walker.walkRequestOrigin::total            0                       # Table walker requests started/completed, data/inst
system.cpu.dtb.inst_hits                            0                       # ITB inst hits
system.cpu.dtb.inst_misses                          0                       # ITB inst misses
system.cpu.dtb.read_hits                            0                       # DTB read hits
system.cpu.dtb.read_misses                          0                       # DTB read misses
system.cpu.dtb.write_hits                           0                       # DTB write hits
system.cpu.dtb.write_misses                         0                       # DTB write misses
system.cpu.dtb.flush_tlb                            0                       # Number of times complete TLB was flushed
system.cpu.dtb.flush_tlb_mva                        0                       # Number of times TLB was flushed by MVA
system.cpu.dtb.flush_tlb_mva_asid                   0                       # Number of times TLB was flushed by MVA & ASID
system.cpu.dtb.flush_tlb_asid                       0                       # Number of times TLB was flushed by ASID
system.cpu.dtb.flush_entries                        0                       # Number of entries that have been flushed from TLB
system.cpu.dtb.align_faults                         0                       # Number of TLB faults due to alignment restrictions
system.cpu.dtb.prefetch_faults                      0                       # Number of TLB faults due to prefetch
system.cpu.dtb.domain_faults                        0                       # Number of TLB faults due to domain restrictions
system.cpu.dtb.perms_faults                         0                       # Number of TLB faults due to permissions restrictions
system.cpu.dtb.read_accesses                        0                       # DTB read accesses
system.cpu.dtb.write_accesses                       0                       # DTB write accesses
system.cpu.dtb.inst_accesses                        0                       # ITB inst accesses
system.cpu.dtb.hits                                 0                       # DTB hits
system.cpu.dtb.misses                               0                       # DTB misses
system.cpu.dtb.accesses                             0                       # DTB accesses
system.cpu.istage2_mmu.stage2_tlb.walker.pwrStateResidencyTicks::UNDEFINED  95906236000                       # Cumulative time (in ticks) in various power states
system.cpu.istage2_mmu.stage2_tlb.walker.walks            0                       # Table walker walks requested
system.cpu.istage2_mmu.stage2_tlb.walker.walkRequestOrigin_Requested::Data            0                       # Table walker requests started/completed, data/inst
system.cpu.istage2_mmu.stage2_tlb.walker.walkRequestOrigin_Requested::Inst            0                       # Table walker requests started/completed, data/inst
system.cpu.istage2_mmu.stage2_tlb.walker.walkRequestOrigin_Requested::total            0                       # Table walker requests started/completed, data/inst
system.cpu.istage2_mmu.stage2_tlb.walker.walkRequestOrigin_Completed::Data            0                       # Table walker requests started/completed, data/inst
system.cpu.istage2_mmu.stage2_tlb.walker.walkRequestOrigin_Completed::Inst            0                       # Table walker requests started/completed, data/inst
system.cpu.istage2_mmu.stage2_tlb.walker.walkRequestOrigin_Completed::total            0                       # Table walker requests started/completed, data/inst
system.cpu.istage2_mmu.stage2_tlb.walker.walkRequestOrigin::total            0                       # Table walker requests started/completed, data/inst
system.cpu.istage2_mmu.stage2_tlb.inst_hits            0                       # ITB inst hits
system.cpu.istage2_mmu.stage2_tlb.inst_misses            0                       # ITB inst misses
system.cpu.istage2_mmu.stage2_tlb.read_hits            0                       # DTB read hits
system.cpu.istage2_mmu.stage2_tlb.read_misses            0                       # DTB read misses
system.cpu.istage2_mmu.stage2_tlb.write_hits            0                       # DTB write hits
system.cpu.istage2_mmu.stage2_tlb.write_misses            0                       # DTB write misses
system.cpu.istage2_mmu.stage2_tlb.flush_tlb            0                       # Number of times complete TLB was flushed
system.cpu.istage2_mmu.stage2_tlb.flush_tlb_mva            0                       # Number of times TLB was flushed by MVA
system.cpu.istage2_mmu.stage2_tlb.flush_tlb_mva_asid            0                       # Number of times TLB was flushed by MVA & ASID
system.cpu.istage2_mmu.stage2_tlb.flush_tlb_asid            0                       # Number of times TLB was flushed by ASID
system.cpu.istage2_mmu.stage2_tlb.flush_entries            0                       # Number of entries that have been flushed from TLB
system.cpu.istage2_mmu.stage2_tlb.align_faults            0                       # Number of TLB faults due to alignment restrictions
system.cpu.istage2_mmu.stage2_tlb.prefetch_faults            0                       # Number of TLB faults due to prefetch
system.cpu.istage2_mmu.stage2_tlb.domain_faults            0                       # Number of TLB faults due to domain restrictions
system.cpu.istage2_mmu.stage2_tlb.perms_faults            0                       # Number of TLB faults due to permissions restrictions
system.cpu.istage2_mmu.stage2_tlb.read_accesses            0                       # DTB read accesses
system.cpu.istage2_mmu.stage2_tlb.write_accesses            0                       # DTB write accesses
system.cpu.istage2_mmu.stage2_tlb.inst_accesses            0                       # ITB inst accesses
system.cpu.istage2_mmu.stage2_tlb.hits              0                       # DTB hits
system.cpu.istage2_mmu.stage2_tlb.misses            0                       # DTB misses
system.cpu.istage2_mmu.stage2_tlb.accesses            0                       # DTB accesses
system.cpu.itb.walker.pwrStateResidencyTicks::UNDEFINED  95906236000                       # Cumulative time (in ticks) in various power states
system.cpu.itb.walker.walks                         0                       # Table walker walks requested
system.cpu.itb.walker.walkRequestOrigin_Requested::Data            0                       # Table walker requests started/completed, data/inst
system.cpu.itb.walker.walkRequestOrigin_Requested::Inst            0                       # Table walker requests started/completed, data/inst
system.cpu.itb.walker.walkRequestOrigin_Requested::total            0                       # Table walker requests started/completed, data/inst
system.cpu.itb.walker.walkRequestOrigin_Completed::Data            0                       # Table walker requests started/completed, data/inst
system.cpu.itb.walker.walkRequestOrigin_Completed::Inst            0                       # Table walker requests started/completed, data/inst
system.cpu.itb.walker.walkRequestOrigin_Completed::total            0                       # Table walker requests started/completed, data/inst
system.cpu.itb.walker.walkRequestOrigin::total            0                       # Table walker requests started/completed, data/inst
system.cpu.itb.inst_hits                            0                       # ITB inst hits
system.cpu.itb.inst_misses                          0                       # ITB inst misses
system.cpu.itb.read_hits                            0                       # DTB read hits
system.cpu.itb.read_misses                          0                       # DTB read misses
system.cpu.itb.write_hits                           0                       # DTB write hits
system.cpu.itb.write_misses                         0                       # DTB write misses
system.cpu.itb.flush_tlb                            0                       # Number of times complete TLB was flushed
system.cpu.itb.flush_tlb_mva                        0                       # Number of times TLB was flushed by MVA
system.cpu.itb.flush_tlb_mva_asid                   0                       # Number of times TLB was flushed by MVA & ASID
system.cpu.itb.flush_tlb_asid                       0                       # Number of times TLB was flushed by ASID
system.cpu.itb.flush_entries                        0                       # Number of entries that have been flushed from TLB
system.cpu.itb.align_faults                         0                       # Number of TLB faults due to alignment restrictions
system.cpu.itb.prefetch_faults                      0                       # Number of TLB faults due to prefetch
system.cpu.itb.domain_faults                        0                       # Number of TLB faults due to domain restrictions
system.cpu.itb.perms_faults                         0                       # Number of TLB faults due to permissions restrictions
system.cpu.itb.read_accesses                        0                       # DTB read accesses
system.cpu.itb.write_accesses                       0                       # DTB write accesses
system.cpu.itb.inst_accesses                        0                       # ITB inst accesses
system.cpu.itb.hits                                 0                       # DTB hits
system.cpu.itb.misses                               0                       # DTB misses
system.cpu.itb.accesses                             0                       # DTB accesses
system.cpu.workload.numSyscalls                    11                       # Number of system calls
system.cpu.pwrStateResidencyTicks::ON     95906236000                       # Cumulative time (in ticks) in various power states
system.cpu.numCycles                        191812473                       # number of cpu cycles simulated
system.cpu.numWorkItemsStarted                      0                       # number of work items this cpu started
system.cpu.numWorkItemsCompleted                    0                       # number of work items this cpu completed
system.cpu.fetch.icacheStallCycles            2919398                       # Number of cycles fetch is stalled on an Icache miss
system.cpu.fetch.Insts                      345288858                       # Number of instructions fetch has processed
system.cpu.fetch.Branches                    37077445                       # Number of branches that fetch encountered
system.cpu.fetch.predictedBranches           35973000                       # Number of branches that fetch has predicted taken
system.cpu.fetch.Cycles                     185933200                       # Number of cycles fetch has run and was not squashing or blocked
system.cpu.fetch.SquashCycles                 5843578                       # Number of cycles fetch has spent squashing
system.cpu.fetch.MiscStallCycles                  510                       # Number of cycles fetch has spent waiting on interrupts, or bad addresses, or out of MSHRs
system.cpu.fetch.IcacheWaitRetryStallCycles          590                       # Number of stall cycles due to full MSHR
system.cpu.fetch.CacheLines                 112878589                       # Number of cache lines fetched
system.cpu.fetch.IcacheSquashes                   247                       # Number of outstanding Icache misses that were squashed
system.cpu.fetch.rateDist::samples          191775487                       # Number of instructions fetched each cycle (Total)
system.cpu.fetch.rateDist::mean              1.925333                       # Number of instructions fetched each cycle (Total)
system.cpu.fetch.rateDist::stdev             1.030839                       # Number of instructions fetched each cycle (Total)
system.cpu.fetch.rateDist::underflows               0      0.00%      0.00% # Number of instructions fetched each cycle (Total)
system.cpu.fetch.rateDist::0                  5862274      3.06%      3.06% # Number of instructions fetched each cycle (Total)
system.cpu.fetch.rateDist::1                 92000636     47.97%     51.03% # Number of instructions fetched each cycle (Total)
system.cpu.fetch.rateDist::2                  4506730      2.35%     53.38% # Number of instructions fetched each cycle (Total)
system.cpu.fetch.rateDist::3                 89405847     46.62%    100.00% # Number of instructions fetched each cycle (Total)
system.cpu.fetch.rateDist::overflows                0      0.00%    100.00% # Number of instructions fetched each cycle (Total)
system.cpu.fetch.rateDist::min_value                0                       # Number of instructions fetched each cycle (Total)
system.cpu.fetch.rateDist::max_value                3                       # Number of instructions fetched each cycle (Total)
system.cpu.fetch.rateDist::total            191775487                       # Number of instructions fetched each cycle (Total)
system.cpu.fetch.branchRate                  0.193300                       # Number of branch fetches per cycle
system.cpu.fetch.rate                        1.800138                       # Number of inst fetches per cycle
system.cpu.decode.IdleCycles                  6841227                       # Number of cycles decode is idle
system.cpu.decode.BlockedCycles               6774567                       # Number of cycles decode is blocked
system.cpu.decode.RunCycles                 174345857                       # Number of cycles decode is running
system.cpu.decode.UnblockCycles                892238                       # Number of cycles decode is unblocking
system.cpu.decode.SquashCycles                2921598                       # Number of cycles decode is squashing
system.cpu.decode.BranchResolved             22451729                       # Number of times decode resolved a branch
system.cpu.decode.BranchMispred                   196                       # Number of times decode detected a branch misprediction
system.cpu.decode.DecodedInsts              348526208                       # Number of instructions handled by decode
system.cpu.decode.SquashedInsts              11411173                       # Number of squashed instructions handled by decode
system.cpu.rename.SquashCycles                2921598                       # Number of cycles rename is squashing
system.cpu.rename.IdleCycles                 17259923                       # Number of cycles rename is idle
system.cpu.rename.BlockCycles                 4632755                       # Number of cycles rename is blocking
system.cpu.rename.serializeStallCycles          14067                       # count of cycles rename stalled for serializing inst
system.cpu.rename.RunCycles                 164818464                       # Number of cycles rename is running
system.cpu.rename.UnblockCycles               2128680                       # Number of cycles rename is unblocking
system.cpu.rename.RenamedInsts              337067377                       # Number of instructions processed by rename
system.cpu.rename.SquashedInsts               3776148                       # Number of squashed instructions processed by rename
system.cpu.rename.ROBFullEvents               1529408                       # Number of times rename has blocked due to ROB full
system.cpu.rename.IQFullEvents                    826                       # Number of times rename has blocked due to IQ full
system.cpu.rename.SQFullEvents                   8865                       # Number of times rename has blocked due to SQ full
system.cpu.rename.FullRegisterEvents              719                       # Number of times there has been no free registers
system.cpu.rename.RenamedOperands           281402549                       # Number of destination operands rename has renamed
system.cpu.rename.RenameLookups             391346697                       # Number of register rename lookups that rename has made
system.cpu.rename.int_rename_lookups        364772619                       # Number of integer rename lookups
system.cpu.rename.vec_rename_lookups             7006                       # Number of vector rename lookups
system.cpu.rename.CommittedMaps             227884631                       # Number of HB maps that are committed
system.cpu.rename.UndoneMaps                 53517918                       # Number of HB maps that are undone due to squashing
system.cpu.rename.serializingInsts                387                       # count of serializing insts renamed
system.cpu.rename.tempSerializingInsts            270                       # count of temporary serializing insts renamed
system.cpu.rename.skidInsts                   4026243                       # count of insts added to the skid buffer
system.cpu.memDep0.insertedLoads             87307514                       # Number of loads inserted to the mem dependence unit.
system.cpu.memDep0.insertedStores            53950704                       # Number of stores inserted to the mem dependence unit.
system.cpu.memDep0.conflictingLoads          37281371                       # Number of conflicting loads.
system.cpu.memDep0.conflictingStores            15381                       # Number of conflicting stores.
system.cpu.iq.iqInstsAdded                  321444736                       # Number of instructions added to the IQ (excludes non-spec)
system.cpu.iq.iqNonSpecInstsAdded                 265                       # Number of non-speculative instructions added to the IQ
system.cpu.iq.iqInstsIssued                 296918406                       # Number of instructions issued
system.cpu.iq.iqSquashedInstsIssued            179071                       # Number of squashed instructions issued
system.cpu.iq.iqSquashedInstsExamined        57177021                       # Number of squashed instructions iterated over during squash; mainly for profiling
system.cpu.iq.iqSquashedOperandsExamined     41973009                       # Number of squashed operands that are examined and possibly removed from graph
system.cpu.iq.iqSquashedNonSpecRemoved             37                       # Number of squashed non-spec instructions that were removed
system.cpu.iq.issued_per_cycle::samples     191775487                       # Number of insts issued each cycle
system.cpu.iq.issued_per_cycle::mean         1.548260                       # Number of insts issued each cycle
system.cpu.iq.issued_per_cycle::stdev        1.033085                       # Number of insts issued each cycle
system.cpu.iq.issued_per_cycle::underflows            0      0.00%      0.00% # Number of insts issued each cycle
system.cpu.iq.issued_per_cycle::0            37818271     19.72%     19.72% # Number of insts issued each cycle
system.cpu.iq.issued_per_cycle::1            47857254     24.95%     44.67% # Number of insts issued each cycle
system.cpu.iq.issued_per_cycle::2            73148084     38.14%     82.82% # Number of insts issued each cycle
system.cpu.iq.issued_per_cycle::3            29042621     15.14%     97.96% # Number of insts issued each cycle
system.cpu.iq.issued_per_cycle::4             3909164      2.04%    100.00% # Number of insts issued each cycle
system.cpu.iq.issued_per_cycle::5                  93      0.00%    100.00% # Number of insts issued each cycle
system.cpu.iq.issued_per_cycle::6                   0      0.00%    100.00% # Number of insts issued each cycle
system.cpu.iq.issued_per_cycle::7                   0      0.00%    100.00% # Number of insts issued each cycle
system.cpu.iq.issued_per_cycle::8                   0      0.00%    100.00% # Number of insts issued each cycle
system.cpu.iq.issued_per_cycle::overflows            0      0.00%    100.00% # Number of insts issued each cycle
system.cpu.iq.issued_per_cycle::min_value            0                       # Number of insts issued each cycle
system.cpu.iq.issued_per_cycle::max_value            5                       # Number of insts issued each cycle
system.cpu.iq.issued_per_cycle::total       191775487                       # Number of insts issued each cycle
system.cpu.iq.fu_full::No_OpClass                   0      0.00%      0.00% # attempts to use FU when none available
system.cpu.iq.fu_full::IntAlu                 9002613     18.65%     18.65% # attempts to use FU when none available
system.cpu.iq.fu_full::IntMult                      0      0.00%     18.65% # attempts to use FU when none available
system.cpu.iq.fu_full::IntDiv                       0      0.00%     18.65% # attempts to use FU when none available
system.cpu.iq.fu_full::FloatAdd                     0      0.00%     18.65% # attempts to use FU when none available
system.cpu.iq.fu_full::FloatCmp                     0      0.00%     18.65% # attempts to use FU when none available
system.cpu.iq.fu_full::FloatCvt                     0      0.00%     18.65% # attempts to use FU when none available
system.cpu.iq.fu_full::FloatMult                    0      0.00%     18.65% # attempts to use FU when none available
system.cpu.iq.fu_full::FloatMultAcc                 0      0.00%     18.65% # attempts to use FU when none available
system.cpu.iq.fu_full::FloatDiv                     0      0.00%     18.65% # attempts to use FU when none available
system.cpu.iq.fu_full::FloatMisc                    0      0.00%     18.65% # attempts to use FU when none available
system.cpu.iq.fu_full::FloatSqrt                    0      0.00%     18.65% # attempts to use FU when none available
system.cpu.iq.fu_full::SimdAdd                      0      0.00%     18.65% # attempts to use FU when none available
system.cpu.iq.fu_full::SimdAddAcc                   0      0.00%     18.65% # attempts to use FU when none available
system.cpu.iq.fu_full::SimdAlu                      1      0.00%     18.65% # attempts to use FU when none available
system.cpu.iq.fu_full::SimdCmp                    103      0.00%     18.65% # attempts to use FU when none available
system.cpu.iq.fu_full::SimdCvt                      0      0.00%     18.65% # attempts to use FU when none available
system.cpu.iq.fu_full::SimdMisc                     0      0.00%     18.65% # attempts to use FU when none available
system.cpu.iq.fu_full::SimdMult                     0      0.00%     18.65% # attempts to use FU when none available
system.cpu.iq.fu_full::SimdMultAcc                  0      0.00%     18.65% # attempts to use FU when none available
system.cpu.iq.fu_full::SimdShift                    0      0.00%     18.65% # attempts to use FU when none available
system.cpu.iq.fu_full::SimdShiftAcc                 0      0.00%     18.65% # attempts to use FU when none available
system.cpu.iq.fu_full::SimdSqrt                     0      0.00%     18.65% # attempts to use FU when none available
system.cpu.iq.fu_full::SimdFloatAdd                 0      0.00%     18.65% # attempts to use FU when none available
system.cpu.iq.fu_full::SimdFloatAlu                 0      0.00%     18.65% # attempts to use FU when none available
system.cpu.iq.fu_full::SimdFloatCmp                 0      0.00%     18.65% # attempts to use FU when none available
system.cpu.iq.fu_full::SimdFloatCvt                 0      0.00%     18.65% # attempts to use FU when none available
system.cpu.iq.fu_full::SimdFloatDiv                 0      0.00%     18.65% # attempts to use FU when none available
system.cpu.iq.fu_full::SimdFloatMisc                0      0.00%     18.65% # attempts to use FU when none available
system.cpu.iq.fu_full::SimdFloatMult                0      0.00%     18.65% # attempts to use FU when none available
system.cpu.iq.fu_full::SimdFloatMultAcc             0      0.00%     18.65% # attempts to use FU when none available
system.cpu.iq.fu_full::SimdFloatSqrt                0      0.00%     18.65% # attempts to use FU when none available
system.cpu.iq.fu_full::MemRead               26117977     54.10%     72.75% # attempts to use FU when none available
system.cpu.iq.fu_full::MemWrite              13152468     27.25%    100.00% # attempts to use FU when none available
system.cpu.iq.fu_full::FloatMemRead                 0      0.00%    100.00% # attempts to use FU when none available
system.cpu.iq.fu_full::FloatMemWrite                0      0.00%    100.00% # attempts to use FU when none available
system.cpu.iq.fu_full::IprAccess                    0      0.00%    100.00% # attempts to use FU when none available
system.cpu.iq.fu_full::InstPrefetch                 0      0.00%    100.00% # attempts to use FU when none available
system.cpu.iq.FU_type_0::No_OpClass               206      0.00%      0.00% # Type of FU issued
system.cpu.iq.FU_type_0::IntAlu             170083472     57.28%     57.28% # Type of FU issued
system.cpu.iq.FU_type_0::IntMult                  605      0.00%     57.28% # Type of FU issued
system.cpu.iq.FU_type_0::IntDiv                     4      0.00%     57.28% # Type of FU issued
system.cpu.iq.FU_type_0::FloatAdd                   0      0.00%     57.28% # Type of FU issued
system.cpu.iq.FU_type_0::FloatCmp                   0      0.00%     57.28% # Type of FU issued
system.cpu.iq.FU_type_0::FloatCvt                   0      0.00%     57.28% # Type of FU issued
system.cpu.iq.FU_type_0::FloatMult                  0      0.00%     57.28% # Type of FU issued
system.cpu.iq.FU_type_0::FloatMultAcc               0      0.00%     57.28% # Type of FU issued
system.cpu.iq.FU_type_0::FloatDiv                   0      0.00%     57.28% # Type of FU issued
system.cpu.iq.FU_type_0::FloatMisc                  0      0.00%     57.28% # Type of FU issued
system.cpu.iq.FU_type_0::FloatSqrt                  0      0.00%     57.28% # Type of FU issued
system.cpu.iq.FU_type_0::SimdAdd                  411      0.00%     57.28% # Type of FU issued
system.cpu.iq.FU_type_0::SimdAddAcc                 0      0.00%     57.28% # Type of FU issued
system.cpu.iq.FU_type_0::SimdAlu                  808      0.00%     57.28% # Type of FU issued
system.cpu.iq.FU_type_0::SimdCmp                  824      0.00%     57.28% # Type of FU issued
system.cpu.iq.FU_type_0::SimdCvt                    0      0.00%     57.28% # Type of FU issued
system.cpu.iq.FU_type_0::SimdMisc                 607      0.00%     57.28% # Type of FU issued
system.cpu.iq.FU_type_0::SimdMult                   0      0.00%     57.28% # Type of FU issued
system.cpu.iq.FU_type_0::SimdMultAcc                0      0.00%     57.28% # Type of FU issued
system.cpu.iq.FU_type_0::SimdShift                  0      0.00%     57.28% # Type of FU issued
system.cpu.iq.FU_type_0::SimdShiftAcc               0      0.00%     57.28% # Type of FU issued
system.cpu.iq.FU_type_0::SimdSqrt                   0      0.00%     57.28% # Type of FU issued
system.cpu.iq.FU_type_0::SimdFloatAdd               0      0.00%     57.28% # Type of FU issued
system.cpu.iq.FU_type_0::SimdFloatAlu               0      0.00%     57.28% # Type of FU issued
system.cpu.iq.FU_type_0::SimdFloatCmp               0      0.00%     57.28% # Type of FU issued
system.cpu.iq.FU_type_0::SimdFloatCvt               0      0.00%     57.28% # Type of FU issued
system.cpu.iq.FU_type_0::SimdFloatDiv               0      0.00%     57.28% # Type of FU issued
system.cpu.iq.FU_type_0::SimdFloatMisc              0      0.00%     57.28% # Type of FU issued
system.cpu.iq.FU_type_0::SimdFloatMult              0      0.00%     57.28% # Type of FU issued
system.cpu.iq.FU_type_0::SimdFloatMultAcc            0      0.00%     57.28% # Type of FU issued
system.cpu.iq.FU_type_0::SimdFloatSqrt              0      0.00%     57.28% # Type of FU issued
system.cpu.iq.FU_type_0::MemRead             79167066     26.66%     83.95% # Type of FU issued
system.cpu.iq.FU_type_0::MemWrite            47664403     16.05%    100.00% # Type of FU issued
system.cpu.iq.FU_type_0::FloatMemRead               0      0.00%    100.00% # Type of FU issued
system.cpu.iq.FU_type_0::FloatMemWrite              0      0.00%    100.00% # Type of FU issued
system.cpu.iq.FU_type_0::IprAccess                  0      0.00%    100.00% # Type of FU issued
system.cpu.iq.FU_type_0::InstPrefetch               0      0.00%    100.00% # Type of FU issued
system.cpu.iq.FU_type_0::total              296918406                       # Type of FU issued
system.cpu.iq.rate                           1.547962                       # Inst issue rate
system.cpu.iq.fu_busy_cnt                    48273162                       # FU busy when requested
system.cpu.iq.fu_busy_rate                   0.162581                       # FU busy rate (busy events/executed inst)
system.cpu.iq.int_inst_queue_reads          834051707                       # Number of integer instruction queue reads
system.cpu.iq.int_inst_queue_writes         378619626                       # Number of integer instruction queue writes
system.cpu.iq.int_inst_queue_wakeup_accesses    291677081                       # Number of integer instruction queue wakeup accesses
system.cpu.iq.fp_inst_queue_reads                   0                       # Number of floating instruction queue reads
system.cpu.iq.fp_inst_queue_writes                  0                       # Number of floating instruction queue writes
system.cpu.iq.fp_inst_queue_wakeup_accesses            0                       # Number of floating instruction queue wakeup accesses
system.cpu.iq.int_alu_accesses              345184378                       # Number of integer alu accesses
system.cpu.iq.fp_alu_accesses                       0                       # Number of floating point alu accesses
system.cpu.iew.lsq.thread0.forwLoads         38071834                       # Number of loads that had data forwarded from stores
system.cpu.iew.lsq.thread0.invAddrLoads             0                       # Number of loads ignored due to an invalid address
system.cpu.iew.lsq.thread0.squashedLoads     15949651                       # Number of loads squashed
system.cpu.iew.lsq.thread0.ignoredResponses       458415                       # Number of memory responses ignored because the instruction is squashed
system.cpu.iew.lsq.thread0.memOrderViolation         4479                       # Number of memory ordering violations
system.cpu.iew.lsq.thread0.squashedStores      7082636                       # Number of stores squashed
system.cpu.iew.lsq.thread0.invAddrSwpfs             0                       # Number of software prefetches ignored due to an invalid address
system.cpu.iew.lsq.thread0.blockedLoads             0                       # Number of blocked loads due to partial load-store forwarding
system.cpu.iew.lsq.thread0.rescheduledLoads      2278750                       # Number of loads that were rescheduled
system.cpu.iew.lsq.thread0.cacheBlocked            41                       # Number of times an access to memory failed due to the cache being blocked
system.cpu.iew.iewIdleCycles                        0                       # Number of cycles IEW is idle
system.cpu.iew.iewSquashCycles                2921598                       # Number of cycles IEW is squashing
system.cpu.iew.iewBlockCycles                 4565998                       # Number of cycles IEW is blocking
system.cpu.iew.iewUnblockCycles                   115                       # Number of cycles IEW is unblocking
system.cpu.iew.iewDispatchedInsts           332019266                       # Number of instructions dispatched to IQ
system.cpu.iew.iewDispSquashedInsts                 0                       # Number of squashed instructions skipped by dispatch
system.cpu.iew.iewDispLoadInsts              87307514                       # Number of dispatched load instructions
system.cpu.iew.iewDispStoreInsts             53950704                       # Number of dispatched store instructions
system.cpu.iew.iewDispNonSpecInsts                264                       # Number of dispatched non-speculative instructions
system.cpu.iew.iewIQFullEvents                      0                       # Number of times the IQ has become full, causing a stall
system.cpu.iew.iewLSQFullEvents                   115                       # Number of times the LSQ has become full, causing a stall
system.cpu.iew.memOrderViolationEvents           4479                       # Number of memory order violations
system.cpu.iew.predictedTakenIncorrect        2757959                       # Number of branches that were predicted taken incorrectly
system.cpu.iew.predictedNotTakenIncorrect       162332                       # Number of branches that were predicted not taken incorrectly
system.cpu.iew.branchMispredicts              2920291                       # Number of branch mispredicts detected at execute
system.cpu.iew.iewExecutedInsts             294425248                       # Number of executed instructions
system.cpu.iew.iewExecLoadInsts              77604320                       # Number of load instructions executed
system.cpu.iew.iewExecSquashedInsts           2493158                       # Number of squashed instructions skipped in execute
system.cpu.iew.exec_swp                             0                       # number of swp insts executed
system.cpu.iew.exec_nop                      10574265                       # number of nop insts executed
system.cpu.iew.exec_refs                    125095489                       # number of memory reference insts executed
system.cpu.iew.exec_branches                 31334043                       # Number of branches executed
system.cpu.iew.exec_stores                   47491169                       # Number of stores executed
system.cpu.iew.exec_rate                     1.534964                       # Inst execution rate
system.cpu.iew.wb_sent                      291684354                       # cumulative count of insts sent to commit
system.cpu.iew.wb_count                     291681953                       # cumulative count of insts written-back
system.cpu.iew.wb_producers                 203824551                       # num instructions producing a value
system.cpu.iew.wb_consumers                 254370703                       # num instructions consuming a value
system.cpu.iew.wb_rate                       1.520662                       # insts written-back per cycle
system.cpu.iew.wb_fanout                     0.801289                       # average fanout of values written-back
system.cpu.commit.commitSquashedInsts        53021426                       # The number of squashed insts skipped by commit
system.cpu.commit.commitNonSpecStalls             228                       # The number of times commit has been forced to stall to communicate backwards
system.cpu.commit.branchMispredicts           2917938                       # The number of times a branch was mispredicted
system.cpu.commit.committed_per_cycle::samples    184288283                       # Number of insts commited each cycle
system.cpu.commit.committed_per_cycle::mean     1.484834                       # Number of insts commited each cycle
system.cpu.commit.committed_per_cycle::stdev     2.183387                       # Number of insts commited each cycle
system.cpu.commit.committed_per_cycle::underflows            0      0.00%      0.00% # Number of insts commited each cycle
system.cpu.commit.committed_per_cycle::0     86078382     46.71%     46.71% # Number of insts commited each cycle
system.cpu.commit.committed_per_cycle::1     42399790     23.01%     69.72% # Number of insts commited each cycle
system.cpu.commit.committed_per_cycle::2     17585420      9.54%     79.26% # Number of insts commited each cycle
system.cpu.commit.committed_per_cycle::3     13386996      7.26%     86.52% # Number of insts commited each cycle
system.cpu.commit.committed_per_cycle::4      6084719      3.30%     89.82% # Number of insts commited each cycle
system.cpu.commit.committed_per_cycle::5      5130176      2.78%     92.61% # Number of insts commited each cycle
system.cpu.commit.committed_per_cycle::6        70365      0.04%     92.65% # Number of insts commited each cycle
system.cpu.commit.committed_per_cycle::7      2925465      1.59%     94.23% # Number of insts commited each cycle
system.cpu.commit.committed_per_cycle::8     10626970      5.77%    100.00% # Number of insts commited each cycle
system.cpu.commit.committed_per_cycle::overflows            0      0.00%    100.00% # Number of insts commited each cycle
system.cpu.commit.committed_per_cycle::min_value            0                       # Number of insts commited each cycle
system.cpu.commit.committed_per_cycle::max_value            8                       # Number of insts commited each cycle
system.cpu.commit.committed_per_cycle::total    184288283                       # Number of insts commited each cycle
system.cpu.commit.committedInsts            256306609                       # Number of instructions committed
system.cpu.commit.committedOps              273637579                       # Number of ops (including micro ops) committed
system.cpu.commit.swp_count                         0                       # Number of s/w prefetches committed
system.cpu.commit.refs                      118225931                       # Number of memory references committed
system.cpu.commit.loads                      71357863                       # Number of loads committed
system.cpu.commit.membars                         216                       # Number of memory barriers committed
system.cpu.commit.branches                   29226738                       # Number of branches committed
system.cpu.commit.vec_insts                      4848                       # Number of committed Vector instructions.
system.cpu.commit.fp_insts                          0                       # Number of committed floating point instructions.
system.cpu.commit.int_insts                 253786022                       # Number of committed integer instructions.
system.cpu.commit.function_calls              9370692                       # Number of function calls committed.
system.cpu.commit.op_class_0::No_OpClass          202      0.00%      0.00% # Class of committed instruction
system.cpu.commit.op_class_0::IntAlu        155408305     56.79%     56.79% # Class of committed instruction
system.cpu.commit.op_class_0::IntMult             504      0.00%     56.79% # Class of committed instruction
system.cpu.commit.op_class_0::IntDiv                3      0.00%     56.79% # Class of committed instruction
system.cpu.commit.op_class_0::FloatAdd              0      0.00%     56.79% # Class of committed instruction
system.cpu.commit.op_class_0::FloatCmp              0      0.00%     56.79% # Class of committed instruction
system.cpu.commit.op_class_0::FloatCvt              0      0.00%     56.79% # Class of committed instruction
system.cpu.commit.op_class_0::FloatMult             0      0.00%     56.79% # Class of committed instruction
system.cpu.commit.op_class_0::FloatMultAcc            0      0.00%     56.79% # Class of committed instruction
system.cpu.commit.op_class_0::FloatDiv              0      0.00%     56.79% # Class of committed instruction
system.cpu.commit.op_class_0::FloatMisc             0      0.00%     56.79% # Class of committed instruction
system.cpu.commit.op_class_0::FloatSqrt             0      0.00%     56.79% # Class of committed instruction
system.cpu.commit.op_class_0::SimdAdd             411      0.00%     56.79% # Class of committed instruction
system.cpu.commit.op_class_0::SimdAddAcc            0      0.00%     56.79% # Class of committed instruction
system.cpu.commit.op_class_0::SimdAlu             808      0.00%     56.79% # Class of committed instruction
system.cpu.commit.op_class_0::SimdCmp             808      0.00%     56.79% # Class of committed instruction
system.cpu.commit.op_class_0::SimdCvt               0      0.00%     56.79% # Class of committed instruction
system.cpu.commit.op_class_0::SimdMisc            607      0.00%     56.79% # Class of committed instruction
system.cpu.commit.op_class_0::SimdMult              0      0.00%     56.79% # Class of committed instruction
system.cpu.commit.op_class_0::SimdMultAcc            0      0.00%     56.79% # Class of committed instruction
system.cpu.commit.op_class_0::SimdShift             0      0.00%     56.79% # Class of committed instruction
system.cpu.commit.op_class_0::SimdShiftAcc            0      0.00%     56.79% # Class of committed instruction
system.cpu.commit.op_class_0::SimdSqrt              0      0.00%     56.79% # Class of committed instruction
system.cpu.commit.op_class_0::SimdFloatAdd            0      0.00%     56.79% # Class of committed instruction
system.cpu.commit.op_class_0::SimdFloatAlu            0      0.00%     56.79% # Class of committed instruction
system.cpu.commit.op_class_0::SimdFloatCmp            0      0.00%     56.79% # Class of committed instruction
system.cpu.commit.op_class_0::SimdFloatCvt            0      0.00%     56.79% # Class of committed instruction
system.cpu.commit.op_class_0::SimdFloatDiv            0      0.00%     56.79% # Class of committed instruction
system.cpu.commit.op_class_0::SimdFloatMisc            0      0.00%     56.79% # Class of committed instruction
system.cpu.commit.op_class_0::SimdFloatMult            0      0.00%     56.79% # Class of committed instruction
[...]
system.l2.ReadCleanReq_miss_rate::cpu.inst     0.971154                       # miss rate for ReadCleanReq accesses
system.l2.ReadCleanReq_miss_rate::total      0.971154                       # miss rate for ReadCleanReq accesses
system.l2.ReadSharedReq_miss_rate::cpu.data     0.970588                       # miss rate for ReadSharedReq accesses
system.l2.ReadSharedReq_miss_rate::total     0.970588                       # miss rate for ReadSharedReq accesses
system.l2.demand_miss_rate::cpu.inst         0.971154                       # miss rate for demand accesses
system.l2.demand_miss_rate::cpu.data         0.873303                       # miss rate for demand accesses
system.l2.demand_miss_rate::total            0.937206                       # miss rate for demand accesses
system.l2.overall_miss_rate::cpu.inst        0.971154                       # miss rate for overall accesses
system.l2.overall_miss_rate::cpu.data        0.873303                       # miss rate for overall accesses
system.l2.overall_miss_rate::total           0.937206                       # miss rate for overall accesses
system.l2.ReadExReq_avg_miss_latency::cpu.data 142771.276596                       # average ReadExReq miss latency
system.l2.ReadExReq_avg_miss_latency::total 142771.276596                       # average ReadExReq miss latency
system.l2.ReadCleanReq_avg_miss_latency::cpu.inst 82985.148515                       # average ReadCleanReq miss latency
system.l2.ReadCleanReq_avg_miss_latency::total 82985.148515                       # average ReadCleanReq miss latency
system.l2.ReadSharedReq_avg_miss_latency::cpu.data 88464.646465                       # average ReadSharedReq miss latency
system.l2.ReadSharedReq_avg_miss_latency::total 88464.646465                       # average ReadSharedReq miss latency
system.l2.demand_avg_miss_latency::cpu.inst 82985.148515                       # average overall miss latency
system.l2.demand_avg_miss_latency::cpu.data 114914.507772                       # average overall miss latency
system.l2.demand_avg_miss_latency::total 93307.370184                       # average overall miss latency
system.l2.overall_avg_miss_latency::cpu.inst 82985.148515                       # average overall miss latency
system.l2.overall_avg_miss_latency::cpu.data 114914.507772                       # average overall miss latency
system.l2.overall_avg_miss_latency::total 93307.370184                       # average overall miss latency
system.l2.blocked_cycles::no_mshrs                  0                       # number of cycles access was blocked
system.l2.blocked_cycles::no_targets                0                       # number of cycles access was blocked
system.l2.blocked::no_mshrs                         0                       # number of cycles access was blocked
system.l2.blocked::no_targets                       0                       # number of cycles access was blocked
system.l2.avg_blocked_cycles::no_mshrs            nan                       # average number of cycles each access was blocked
system.l2.avg_blocked_cycles::no_targets          nan                       # average number of cycles each access was blocked
system.l2.ReadExReq_mshr_hits::cpu.data             1                       # number of ReadExReq MSHR hits
system.l2.ReadExReq_mshr_hits::total                1                       # number of ReadExReq MSHR hits
system.l2.ReadSharedReq_mshr_hits::cpu.data            5                       # number of ReadSharedReq MSHR hits
system.l2.ReadSharedReq_mshr_hits::total            5                       # number of ReadSharedReq MSHR hits
system.l2.demand_mshr_hits::cpu.data                6                       # number of demand (read+write) MSHR hits
system.l2.demand_mshr_hits::total                   6                       # number of demand (read+write) MSHR hits
system.l2.overall_mshr_hits::cpu.data               6                       # number of overall MSHR hits
system.l2.overall_mshr_hits::total                  6                       # number of overall MSHR hits
system.l2.HardPFReq_mshr_misses::l2.prefetcher           68                       # number of HardPFReq MSHR misses
system.l2.HardPFReq_mshr_misses::total             68                       # number of HardPFReq MSHR misses
system.l2.ReadExReq_mshr_misses::cpu.data           93                       # number of ReadExReq MSHR misses
system.l2.ReadExReq_mshr_misses::total             93                       # number of ReadExReq MSHR misses
system.l2.ReadCleanReq_mshr_misses::cpu.inst          404                       # number of ReadCleanReq MSHR misses
system.l2.ReadCleanReq_mshr_misses::total          404                       # number of ReadCleanReq MSHR misses
system.l2.ReadSharedReq_mshr_misses::cpu.data           94                       # number of ReadSharedReq MSHR misses
system.l2.ReadSharedReq_mshr_misses::total           94                       # number of ReadSharedReq MSHR misses
system.l2.demand_mshr_misses::cpu.inst            404                       # number of demand (read+write) MSHR misses
system.l2.demand_mshr_misses::cpu.data            187                       # number of demand (read+write) MSHR misses
system.l2.demand_mshr_misses::total               591                       # number of demand (read+write) MSHR misses
system.l2.overall_mshr_misses::cpu.inst           404                       # number of overall MSHR misses
system.l2.overall_mshr_misses::cpu.data           187                       # number of overall MSHR misses
system.l2.overall_mshr_misses::l2.prefetcher           68                       # number of overall MSHR misses
system.l2.overall_mshr_misses::total              659                       # number of overall MSHR misses
system.l2.HardPFReq_mshr_miss_latency::l2.prefetcher      7682339                       # number of HardPFReq MSHR miss cycles
system.l2.HardPFReq_mshr_miss_latency::total      7682339                       # number of HardPFReq MSHR miss cycles
system.l2.ReadExReq_mshr_miss_latency::cpu.data     12847000                       # number of ReadExReq MSHR miss cycles
system.l2.ReadExReq_mshr_miss_latency::total     12847000                       # number of ReadExReq MSHR miss cycles
system.l2.ReadCleanReq_mshr_miss_latency::cpu.inst     31108000                       # number of ReadCleanReq MSHR miss cycles
system.l2.ReadCleanReq_mshr_miss_latency::total     31108000                       # number of ReadCleanReq MSHR miss cycles
system.l2.ReadSharedReq_mshr_miss_latency::cpu.data      7877500                       # number of ReadSharedReq MSHR miss cycles
system.l2.ReadSharedReq_mshr_miss_latency::total      7877500                       # number of ReadSharedReq MSHR miss cycles
system.l2.demand_mshr_miss_latency::cpu.inst     31108000                       # number of demand (read+write) MSHR miss cycles
system.l2.demand_mshr_miss_latency::cpu.data     20724500                       # number of demand (read+write) MSHR miss cycles
system.l2.demand_mshr_miss_latency::total     51832500                       # number of demand (read+write) MSHR miss cycles
system.l2.overall_mshr_miss_latency::cpu.inst     31108000                       # number of overall MSHR miss cycles
system.l2.overall_mshr_miss_latency::cpu.data     20724500                       # number of overall MSHR miss cycles
system.l2.overall_mshr_miss_latency::l2.prefetcher      7682339                       # number of overall MSHR miss cycles
system.l2.overall_mshr_miss_latency::total     59514839                       # number of overall MSHR miss cycles
system.l2.HardPFReq_mshr_miss_rate::l2.prefetcher          inf                       # mshr miss rate for HardPFReq accesses
system.l2.HardPFReq_mshr_miss_rate::total          inf                       # mshr miss rate for HardPFReq accesses
system.l2.ReadExReq_mshr_miss_rate::cpu.data     0.781513                       # mshr miss rate for ReadExReq accesses
system.l2.ReadExReq_mshr_miss_rate::total     0.781513                       # mshr miss rate for ReadExReq accesses
system.l2.ReadCleanReq_mshr_miss_rate::cpu.inst     0.971154                       # mshr miss rate for ReadCleanReq accesses
system.l2.ReadCleanReq_mshr_miss_rate::total     0.971154                       # mshr miss rate for ReadCleanReq accesses
system.l2.ReadSharedReq_mshr_miss_rate::cpu.data     0.921569                       # mshr miss rate for ReadSharedReq accesses
system.l2.ReadSharedReq_mshr_miss_rate::total     0.921569                       # mshr miss rate for ReadSharedReq accesses
system.l2.demand_mshr_miss_rate::cpu.inst     0.971154                       # mshr miss rate for demand accesses
system.l2.demand_mshr_miss_rate::cpu.data     0.846154                       # mshr miss rate for demand accesses
system.l2.demand_mshr_miss_rate::total       0.927786                       # mshr miss rate for demand accesses
system.l2.overall_mshr_miss_rate::cpu.inst     0.971154                       # mshr miss rate for overall accesses
system.l2.overall_mshr_miss_rate::cpu.data     0.846154                       # mshr miss rate for overall accesses
system.l2.overall_mshr_miss_rate::l2.prefetcher          inf                       # mshr miss rate for overall accesses
system.l2.overall_mshr_miss_rate::total      1.034537                       # mshr miss rate for overall accesses
system.l2.HardPFReq_avg_mshr_miss_latency::l2.prefetcher 112975.573529                       # average HardPFReq mshr miss latency
system.l2.HardPFReq_avg_mshr_miss_latency::total 112975.573529                       # average HardPFReq mshr miss latency
system.l2.ReadExReq_avg_mshr_miss_latency::cpu.data 138139.784946                       # average ReadExReq mshr miss latency
system.l2.ReadExReq_avg_mshr_miss_latency::total 138139.784946                       # average ReadExReq mshr miss latency
system.l2.ReadCleanReq_avg_mshr_miss_latency::cpu.inst        77000                       # average ReadCleanReq mshr miss latency
system.l2.ReadCleanReq_avg_mshr_miss_latency::total        77000                       # average ReadCleanReq mshr miss latency
system.l2.ReadSharedReq_avg_mshr_miss_latency::cpu.data 83803.191489                       # average ReadSharedReq mshr miss latency
system.l2.ReadSharedReq_avg_mshr_miss_latency::total 83803.191489                       # average ReadSharedReq mshr miss latency
system.l2.demand_avg_mshr_miss_latency::cpu.inst        77000                       # average overall mshr miss latency
system.l2.demand_avg_mshr_miss_latency::cpu.data 110826.203209                       # average overall mshr miss latency
system.l2.demand_avg_mshr_miss_latency::total 87703.045685                       # average overall mshr miss latency
system.l2.overall_avg_mshr_miss_latency::cpu.inst        77000                       # average overall mshr miss latency
system.l2.overall_avg_mshr_miss_latency::cpu.data 110826.203209                       # average overall mshr miss latency
system.l2.overall_avg_mshr_miss_latency::l2.prefetcher 112975.573529                       # average overall mshr miss latency
system.l2.overall_avg_mshr_miss_latency::total 90310.833080                       # average overall mshr miss latency
system.membus.snoop_filter.tot_requests           637                       # Total number of requests made to the snoop filter.
system.membus.snoop_filter.hit_single_requests           13                       # Number of requests hitting in the snoop filter with a single holder of the requested data.
system.membus.snoop_filter.hit_multi_requests            0                       # Number of requests hitting in the snoop filter with multiple (>1) holders of the requested data.
system.membus.snoop_filter.tot_snoops               0                       # Total number of snoops made to the snoop filter.
system.membus.snoop_filter.hit_single_snoops            0                       # Number of snoops hitting in the snoop filter with a single holder of the requested data.
system.membus.snoop_filter.hit_multi_snoops            0                       # Number of snoops hitting in the snoop filter with multiple (>1) holders of the requested data.
system.membus.pwrStateResidencyTicks::UNDEFINED  95906236000                       # Cumulative time (in ticks) in various power states
system.membus.trans_dist::ReadResp                544                       # Transaction distribution
system.membus.trans_dist::ReadExReq                93                       # Transaction distribution
system.membus.trans_dist::ReadExResp               93                       # Transaction distribution
system.membus.trans_dist::ReadSharedReq           544                       # Transaction distribution
system.membus.pkt_count_system.l2.mem_side::system.mem_ctrls.port         1274                       # Packet count per connected master and slave (bytes)
system.membus.pkt_count::total                   1274                       # Packet count per connected master and slave (bytes)
system.membus.pkt_size_system.l2.mem_side::system.mem_ctrls.port        40768                       # Cumulative packet size per connected master and slave (bytes)
system.membus.pkt_size::total                   40768                       # Cumulative packet size per connected master and slave (bytes)
system.membus.snoops                                0                       # Total snoops (count)
system.membus.snoopTraffic                          0                       # Total snoop traffic (bytes)
system.membus.snoop_fanout::samples               637                       # Request fanout histogram
system.membus.snoop_fanout::mean                    0                       # Request fanout histogram
system.membus.snoop_fanout::stdev                   0                       # Request fanout histogram
system.membus.snoop_fanout::underflows              0      0.00%      0.00% # Request fanout histogram
system.membus.snoop_fanout::0                     637    100.00%    100.00% # Request fanout histogram
system.membus.snoop_fanout::1                       0      0.00%    100.00% # Request fanout histogram
system.membus.snoop_fanout::overflows               0      0.00%    100.00% # Request fanout histogram
system.membus.snoop_fanout::min_value               0                       # Request fanout histogram
system.membus.snoop_fanout::max_value               0                       # Request fanout histogram
system.membus.snoop_fanout::total                 637                       # Request fanout histogram
system.membus.reqLayer0.occupancy              782867                       # Layer occupancy (ticks)
system.membus.reqLayer0.utilization               0.0                       # Layer utilization (%)
system.membus.respLayer1.occupancy            3374750                       # Layer occupancy (ticks)
system.membus.respLayer1.utilization              0.0                       # Layer utilization (%)
system.tol2bus.snoop_filter.tot_requests          721                       # Total number of requests made to the snoop filter.
system.tol2bus.snoop_filter.hit_single_requests           97                       # Number of requests hitting in the snoop filter with a single holder of the requested data.
system.tol2bus.snoop_filter.hit_multi_requests            2                       # Number of requests hitting in the snoop filter with multiple (>1) holders of the requested data.
system.tol2bus.snoop_filter.tot_snoops             21                       # Total number of snoops made to the snoop filter.
system.tol2bus.snoop_filter.hit_single_snoops           21                       # Number of snoops hitting in the snoop filter with a single holder of the requested data.
system.tol2bus.snoop_filter.hit_multi_snoops            0                       # Number of snoops hitting in the snoop filter with multiple (>1) holders of the requested data.
system.tol2bus.pwrStateResidencyTicks::UNDEFINED  95906236000                       # Cumulative time (in ticks) in various power states
system.tol2bus.trans_dist::ReadResp               517                       # Transaction distribution
system.tol2bus.trans_dist::WritebackClean           84                       # Transaction distribution
system.tol2bus.trans_dist::HardPFReq               92                       # Transaction distribution
system.tol2bus.trans_dist::ReadExReq              119                       # Transaction distribution
system.tol2bus.trans_dist::ReadExResp             119                       # Transaction distribution
system.tol2bus.trans_dist::ReadCleanReq           416                       # Transaction distribution
system.tol2bus.trans_dist::ReadSharedReq          102                       # Transaction distribution
system.tol2bus.pkt_count_system.cpu.icache.mem_side::system.l2.cpu_side          915                       # Packet count per connected master and slave (bytes)
system.tol2bus.pkt_count_system.cpu.dcache.mem_side::system.l2.cpu_side          442                       # Packet count per connected master and slave (bytes)
system.tol2bus.pkt_count::total                  1357                       # Packet count per connected master and slave (bytes)
system.tol2bus.pkt_size_system.cpu.icache.mem_side::system.l2.cpu_side        31936                       # Cumulative packet size per connected master and slave (bytes)
system.tol2bus.pkt_size_system.cpu.dcache.mem_side::system.l2.cpu_side        14144                       # Cumulative packet size per connected master and slave (bytes)
system.tol2bus.pkt_size::total                  46080                       # Cumulative packet size per connected master and slave (bytes)
system.tol2bus.snoops                              92                       # Total snoops (count)
system.tol2bus.snoopTraffic                         0                       # Total snoop traffic (bytes)
system.tol2bus.snoop_fanout::samples              729                       # Request fanout histogram
system.tol2bus.snoop_fanout::mean            0.049383                       # Request fanout histogram
system.tol2bus.snoop_fanout::stdev           0.216815                       # Request fanout histogram
system.tol2bus.snoop_fanout::underflows             0      0.00%      0.00% # Request fanout histogram
system.tol2bus.snoop_fanout::0                    693     95.06%     95.06% # Request fanout histogram
system.tol2bus.snoop_fanout::1                     36      4.94%    100.00% # Request fanout histogram
system.tol2bus.snoop_fanout::2                      0      0.00%    100.00% # Request fanout histogram
system.tol2bus.snoop_fanout::3                      0      0.00%    100.00% # Request fanout histogram
system.tol2bus.snoop_fanout::4                      0      0.00%    100.00% # Request fanout histogram
system.tol2bus.snoop_fanout::overflows              0      0.00%    100.00% # Request fanout histogram
system.tol2bus.snoop_fanout::min_value              0                       # Request fanout histogram
system.tol2bus.snoop_fanout::max_value              1                       # Request fanout histogram
system.tol2bus.snoop_fanout::total                729                       # Request fanout histogram
system.tol2bus.reqLayer0.occupancy             444500                       # Layer occupancy (ticks)
system.tol2bus.reqLayer0.utilization              0.0                       # Layer utilization (%)
system.tol2bus.respLayer0.occupancy            622500                       # Layer occupancy (ticks)
system.tol2bus.respLayer0.utilization             0.0                       # Layer utilization (%)
system.tol2bus.respLayer1.occupancy            332498                       # Layer occupancy (ticks)
system.tol2bus.respLayer1.utilization             0.0                       # Layer utilization (%)

---------- End Simulation Statistics   ----------
