gem5 Simulator System.  http://gem5.org
gem5 is copyrighted software; use the --copyright option for details.

gem5 compiled Dec  5 2017 12:08:01
gem5 started Dec  5 2017 12:15:56
gem5 executing on vikram-Lenovo-ideapad-720S-14IKB, pid 7869
command line: build/ARM/gem5.fast -d m5out/step1 ./configs/example/se.py --caches --l2cache --cpu-type=O3_ARM_v7a_3 -c ../benchmark/microbench/Step1 -o 10

info: Standard input is not a terminal, disabling listeners.
Global frequency set at 1000000000000 ticks per second
**** REAL SIMULATION ****
Define patterns lengthExiting @ tick 65025173000 because exiting with last active thread context
