
---------- Begin Simulation Statistics ----------
sim_seconds                                  0.168529                       # Number of seconds simulated
sim_ticks                                168528690000                       # Number of ticks simulated
final_tick                               168528690000                       # Number of ticks from beginning of simulation (restored from checkpoints and never reset)
sim_freq                                 1000000000000                       # Frequency of simulated ticks
host_inst_rate                                 353128                       # Simulator instruction rate (inst/s)
host_op_rate                                   353138                       # Simulator op (including micro ops) rate (op/s)
host_tick_rate                              146001051                       # Simulator tick rate (ticks/s)
host_mem_usage                                 671148                       # Number of bytes of host memory used
host_seconds                                  1154.30                       # Real time elapsed on the host
sim_insts                                   407614921                       # Number of instructions simulated
sim_ops                                     407626381                       # Number of ops (including micro ops) simulated
system.voltage_domain.voltage                       1                       # Voltage in Volts
system.clk_domain.clock                          1000                       # Clock period in ticks
system.mem_ctrls.pwrStateResidencyTicks::UNDEFINED 168528690000                       # Cumulative time (in ticks) in various power states
system.mem_ctrls.bytes_read::cpu.inst           25536                       # Number of bytes read from this memory
system.mem_ctrls.bytes_read::cpu.data           11776                       # Number of bytes read from this memory
system.mem_ctrls.bytes_read::l2.prefetcher         6080                       # Number of bytes read from this memory
system.mem_ctrls.bytes_read::total              43392                       # Number of bytes read from this memory
system.mem_ctrls.bytes_inst_read::cpu.inst        25536                       # Number of instructions bytes read from this memory
system.mem_ctrls.bytes_inst_read::total         25536                       # Number of instructions bytes read from this memory
system.mem_ctrls.num_reads::cpu.inst              399                       # Number of read requests responded to by this memory
system.mem_ctrls.num_reads::cpu.data              184                       # Number of read requests responded to by this memory
system.mem_ctrls.num_reads::l2.prefetcher           95                       # Number of read requests responded to by this memory
system.mem_ctrls.num_reads::total                 678                       # Number of read requests responded to by this memory
system.mem_ctrls.bw_read::cpu.inst             151523                       # Total read bandwidth from this memory (bytes/s)
system.mem_ctrls.bw_read::cpu.data              69875                       # Total read bandwidth from this memory (bytes/s)
system.mem_ctrls.bw_read::l2.prefetcher         36077                       # Total read bandwidth from this memory (bytes/s)
system.mem_ctrls.bw_read::total                257475                       # Total read bandwidth from this memory (bytes/s)
system.mem_ctrls.bw_inst_read::cpu.inst        151523                       # Instruction read bandwidth from this memory (bytes/s)
system.mem_ctrls.bw_inst_read::total           151523                       # Instruction read bandwidth from this memory (bytes/s)
system.mem_ctrls.bw_total::cpu.inst            151523                       # Total bandwidth to/from this memory (bytes/s)
system.mem_ctrls.bw_total::cpu.data             69875                       # Total bandwidth to/from this memory (bytes/s)
system.mem_ctrls.bw_total::l2.prefetcher        36077                       # Total bandwidth to/from this memory (bytes/s)
system.mem_ctrls.bw_total::total               257475                       # Total bandwidth to/from this memory (bytes/s)
system.mem_ctrls.readReqs                         678                       # Number of read requests accepted
system.mem_ctrls.writeReqs                          0                       # Number of write requests accepted
system.mem_ctrls.readBursts                       678                       # Number of DRAM read bursts, including those serviced by the write queue
system.mem_ctrls.writeBursts                        0                       # Number of DRAM write bursts, including those merged in the write queue
system.mem_ctrls.bytesReadDRAM                  43392                       # Total number of bytes read from DRAM
system.mem_ctrls.bytesReadWrQ                       0                       # Total number of bytes read from write queue
system.mem_ctrls.bytesWritten                       0                       # Total number of bytes written to DRAM
system.mem_ctrls.bytesReadSys                   43392                       # Total read bytes from the system interface side
system.mem_ctrls.bytesWrittenSys                    0                       # Total written bytes from the system interface side
system.mem_ctrls.servicedByWrQ                      0                       # Number of DRAM read bursts serviced by the write queue
system.mem_ctrls.mergedWrBursts                     0                       # Number of DRAM write bursts merged with an existing one
system.mem_ctrls.neitherReadNorWriteReqs            0                       # Number of requests that are neither read nor write
system.mem_ctrls.perBankRdBursts::0               163                       # Per bank write bursts
system.mem_ctrls.perBankRdBursts::1                25                       # Per bank write bursts
system.mem_ctrls.perBankRdBursts::2                10                       # Per bank write bursts
system.mem_ctrls.perBankRdBursts::3                72                       # Per bank write bursts
system.mem_ctrls.perBankRdBursts::4                19                       # Per bank write bursts
system.mem_ctrls.perBankRdBursts::5                27                       # Per bank write bursts
system.mem_ctrls.perBankRdBursts::6                26                       # Per bank write bursts
system.mem_ctrls.perBankRdBursts::7                75                       # Per bank write bursts
system.mem_ctrls.perBankRdBursts::8                25                       # Per bank write bursts
system.mem_ctrls.perBankRdBursts::9                25                       # Per bank write bursts
system.mem_ctrls.perBankRdBursts::10               16                       # Per bank write bursts
system.mem_ctrls.perBankRdBursts::11               17                       # Per bank write bursts
system.mem_ctrls.perBankRdBursts::12               42                       # Per bank write bursts
system.mem_ctrls.perBankRdBursts::13               63                       # Per bank write bursts
system.mem_ctrls.perBankRdBursts::14               25                       # Per bank write bursts
system.mem_ctrls.perBankRdBursts::15               48                       # Per bank write bursts
system.mem_ctrls.perBankWrBursts::0                 0                       # Per bank write bursts
system.mem_ctrls.perBankWrBursts::1                 0                       # Per bank write bursts
system.mem_ctrls.perBankWrBursts::2                 0                       # Per bank write bursts
system.mem_ctrls.perBankWrBursts::3                 0                       # Per bank write bursts
system.mem_ctrls.perBankWrBursts::4                 0                       # Per bank write bursts
system.mem_ctrls.perBankWrBursts::5                 0                       # Per bank write bursts
system.mem_ctrls.perBankWrBursts::6                 0                       # Per bank write bursts
system.mem_ctrls.perBankWrBursts::7                 0                       # Per bank write bursts
system.mem_ctrls.perBankWrBursts::8                 0                       # Per bank write bursts
system.mem_ctrls.perBankWrBursts::9                 0                       # Per bank write bursts
system.mem_ctrls.perBankWrBursts::10                0                       # Per bank write bursts
system.mem_ctrls.perBankWrBursts::11                0                       # Per bank write bursts
system.mem_ctrls.perBankWrBursts::12                0                       # Per bank write bursts
system.mem_ctrls.perBankWrBursts::13                0                       # Per bank write bursts
system.mem_ctrls.perBankWrBursts::14                0                       # Per bank write bursts
system.mem_ctrls.perBankWrBursts::15                0                       # Per bank write bursts
system.mem_ctrls.numRdRetry                         0                       # Number of times read queue was full causing retry
system.mem_ctrls.numWrRetry                         0                       # Number of times write queue was full causing retry
system.mem_ctrls.totGap                  168528596000                       # Total gap between requests
system.mem_ctrls.readPktSize::0                     0                       # Read request sizes (log2)
system.mem_ctrls.readPktSize::1                     0                       # Read request sizes (log2)
system.mem_ctrls.readPktSize::2                     0                       # Read request sizes (log2)
system.mem_ctrls.readPktSize::3                     0                       # Read request sizes (log2)
system.mem_ctrls.readPktSize::4                     0                       # Read request sizes (log2)
system.mem_ctrls.readPktSize::5                     0                       # Read request sizes (log2)
system.mem_ctrls.readPktSize::6                   678                       # Read request sizes (log2)
system.mem_ctrls.writePktSize::0                    0                       # Write request sizes (log2)
system.mem_ctrls.writePktSize::1                    0                       # Write request sizes (log2)
system.mem_ctrls.writePktSize::2                    0                       # Write request sizes (log2)
system.mem_ctrls.writePktSize::3                    0                       # Write request sizes (log2)
system.mem_ctrls.writePktSize::4                    0                       # Write request sizes (log2)
system.mem_ctrls.writePktSize::5                    0                       # Write request sizes (log2)
system.mem_ctrls.writePktSize::6                    0                       # Write request sizes (log2)
system.mem_ctrls.rdQLenPdf::0                     358                       # What read queue length does an incoming req see
system.mem_ctrls.rdQLenPdf::1                     189                       # What read queue length does an incoming req see
system.mem_ctrls.rdQLenPdf::2                      78                       # What read queue length does an incoming req see
system.mem_ctrls.rdQLenPdf::3                      21                       # What read queue length does an incoming req see
system.mem_ctrls.rdQLenPdf::4                      10                       # What read queue length does an incoming req see
system.mem_ctrls.rdQLenPdf::5                       6                       # What read queue length does an incoming req see
system.mem_ctrls.rdQLenPdf::6                       4                       # What read queue length does an incoming req see
system.mem_ctrls.rdQLenPdf::7                       4                       # What read queue length does an incoming req see
system.mem_ctrls.rdQLenPdf::8                       4                       # What read queue length does an incoming req see
system.mem_ctrls.rdQLenPdf::9                       1                       # What read queue length does an incoming req see
system.mem_ctrls.rdQLenPdf::10                      1                       # What read queue length does an incoming req see
system.mem_ctrls.rdQLenPdf::11                      1                       # What read queue length does an incoming req see
system.mem_ctrls.rdQLenPdf::12                      1                       # What read queue length does an incoming req see
system.mem_ctrls.rdQLenPdf::13                      0                       # What read queue length does an incoming req see
system.mem_ctrls.rdQLenPdf::14                      0                       # What read queue length does an incoming req see
system.mem_ctrls.rdQLenPdf::15                      0                       # What read queue length does an incoming req see
system.mem_ctrls.rdQLenPdf::16                      0                       # What read queue length does an incoming req see
system.mem_ctrls.rdQLenPdf::17                      0                       # What read queue length does an incoming req see
system.mem_ctrls.rdQLenPdf::18                      0                       # What read queue length does an incoming req see
system.mem_ctrls.rdQLenPdf::19                      0                       # What read queue length does an incoming req see
system.mem_ctrls.rdQLenPdf::20                      0                       # What read queue length does an incoming req see
system.mem_ctrls.rdQLenPdf::21                      0                       # What read queue length does an incoming req see
system.mem_ctrls.rdQLenPdf::22                      0                       # What read queue length does an incoming req see
system.mem_ctrls.rdQLenPdf::23                      0                       # What read queue length does an incoming req see
system.mem_ctrls.rdQLenPdf::24                      0                       # What read queue length does an incoming req see
system.mem_ctrls.rdQLenPdf::25                      0                       # What read queue length does an incoming req see
system.mem_ctrls.rdQLenPdf::26                      0                       # What read queue length does an incoming req see
system.mem_ctrls.rdQLenPdf::27                      0                       # What read queue length does an incoming req see
system.mem_ctrls.rdQLenPdf::28                      0                       # What read queue length does an incoming req see
system.mem_ctrls.rdQLenPdf::29                      0                       # What read queue length does an incoming req see
system.mem_ctrls.rdQLenPdf::30                      0                       # What read queue length does an incoming req see
system.mem_ctrls.rdQLenPdf::31                      0                       # What read queue length does an incoming req see
system.mem_ctrls.wrQLenPdf::0                       0                       # What write queue length does an incoming req see
system.mem_ctrls.wrQLenPdf::1                       0                       # What write queue length does an incoming req see
system.mem_ctrls.wrQLenPdf::2                       0                       # What write queue length does an incoming req see
system.mem_ctrls.wrQLenPdf::3                       0                       # What write queue length does an incoming req see
system.mem_ctrls.wrQLenPdf::4                       0                       # What write queue length does an incoming req see
system.mem_ctrls.wrQLenPdf::5                       0                       # What write queue length does an incoming req see
system.mem_ctrls.wrQLenPdf::6                       0                       # What write queue length does an incoming req see
system.mem_ctrls.wrQLenPdf::7                       0                       # What write queue length does an incoming req see
system.mem_ctrls.wrQLenPdf::8                       0                       # What write queue length does an incoming req see
system.mem_ctrls.wrQLenPdf::9                       0                       # What write queue length does an incoming req see
system.mem_ctrls.wrQLenPdf::10                      0                       # What write queue length does an incoming req see
system.mem_ctrls.wrQLenPdf::11                      0                       # What write queue length does an incoming req see
system.mem_ctrls.wrQLenPdf::12                      0                       # What write queue length does an incoming req see
system.mem_ctrls.wrQLenPdf::13                      0                       # What write queue length does an incoming req see
system.mem_ctrls.wrQLenPdf::14                      0                       # What write queue length does an incoming req see
system.mem_ctrls.wrQLenPdf::15                      0                       # What write queue length does an incoming req see
system.mem_ctrls.wrQLenPdf::16                      0                       # What write queue length does an incoming req see
system.mem_ctrls.wrQLenPdf::17                      0                       # What write queue length does an incoming req see
system.mem_ctrls.wrQLenPdf::18                      0                       # What write queue length does an incoming req see
system.mem_ctrls.wrQLenPdf::19                      0                       # What write queue length does an incoming req see
system.mem_ctrls.wrQLenPdf::20                      0                       # What write queue length does an incoming req see
system.mem_ctrls.wrQLenPdf::21                      0                       # What write queue length does an incoming req see
system.mem_ctrls.wrQLenPdf::22                      0                       # What write queue length does an incoming req see
system.mem_ctrls.wrQLenPdf::23                      0                       # What write queue length does an incoming req see
system.mem_ctrls.wrQLenPdf::24                      0                       # What write queue length does an incoming req see
system.mem_ctrls.wrQLenPdf::25                      0                       # What write queue length does an incoming req see
system.mem_ctrls.wrQLenPdf::26                      0                       # What write queue length does an incoming req see
system.mem_ctrls.wrQLenPdf::27                      0                       # What write queue length does an incoming req see
system.mem_ctrls.wrQLenPdf::28                      0                       # What write queue length does an incoming req see
system.mem_ctrls.wrQLenPdf::29                      0                       # What write queue length does an incoming req see
system.mem_ctrls.wrQLenPdf::30                      0                       # What write queue length does an incoming req see
system.mem_ctrls.wrQLenPdf::31                      0                       # What write queue length does an incoming req see
system.mem_ctrls.wrQLenPdf::32                      0                       # What write queue length does an incoming req see
system.mem_ctrls.wrQLenPdf::33                      0                       # What write queue length does an incoming req see
system.mem_ctrls.wrQLenPdf::34                      0                       # What write queue length does an incoming req see
system.mem_ctrls.wrQLenPdf::35                      0                       # What write queue length does an incoming req see
system.mem_ctrls.wrQLenPdf::36                      0                       # What write queue length does an incoming req see
system.mem_ctrls.wrQLenPdf::37                      0                       # What write queue length does an incoming req see
system.mem_ctrls.wrQLenPdf::38                      0                       # What write queue length does an incoming req see
system.mem_ctrls.wrQLenPdf::39                      0                       # What write queue length does an incoming req see
system.mem_ctrls.wrQLenPdf::40                      0                       # What write queue length does an incoming req see
system.mem_ctrls.wrQLenPdf::41                      0                       # What write queue length does an incoming req see
system.mem_ctrls.wrQLenPdf::42                      0                       # What write queue length does an incoming req see
system.mem_ctrls.wrQLenPdf::43                      0                       # What write queue length does an incoming req see
system.mem_ctrls.wrQLenPdf::44                      0                       # What write queue length does an incoming req see
system.mem_ctrls.wrQLenPdf::45                      0                       # What write queue length does an incoming req see
system.mem_ctrls.wrQLenPdf::46                      0                       # What write queue length does an incoming req see
system.mem_ctrls.wrQLenPdf::47                      0                       # What write queue length does an incoming req see
system.mem_ctrls.wrQLenPdf::48                      0                       # What write queue length does an incoming req see
system.mem_ctrls.wrQLenPdf::49                      0                       # What write queue length does an incoming req see
system.mem_ctrls.wrQLenPdf::50                      0                       # What write queue length does an incoming req see
system.mem_ctrls.wrQLenPdf::51                      0                       # What write queue length does an incoming req see
system.mem_ctrls.wrQLenPdf::52                      0                       # What write queue length does an incoming req see
system.mem_ctrls.wrQLenPdf::53                      0                       # What write queue length does an incoming req see
system.mem_ctrls.wrQLenPdf::54                      0                       # What write queue length does an incoming req see
system.mem_ctrls.wrQLenPdf::55                      0                       # What write queue length does an incoming req see
system.mem_ctrls.wrQLenPdf::56                      0                       # What write queue length does an incoming req see
system.mem_ctrls.wrQLenPdf::57                      0                       # What write queue length does an incoming req see
system.mem_ctrls.wrQLenPdf::58                      0                       # What write queue length does an incoming req see
system.mem_ctrls.wrQLenPdf::59                      0                       # What write queue length does an incoming req see
system.mem_ctrls.wrQLenPdf::60                      0                       # What write queue length does an incoming req see
system.mem_ctrls.wrQLenPdf::61                      0                       # What write queue length does an incoming req see
system.mem_ctrls.wrQLenPdf::62                      0                       # What write queue length does an incoming req see
system.mem_ctrls.wrQLenPdf::63                      0                       # What write queue length does an incoming req see
system.mem_ctrls.bytesPerActivate::samples          135                       # Bytes accessed per row activation
system.mem_ctrls.bytesPerActivate::mean    298.192593                       # Bytes accessed per row activation
system.mem_ctrls.bytesPerActivate::gmean   175.614042                       # Bytes accessed per row activation
system.mem_ctrls.bytesPerActivate::stdev   322.963042                       # Bytes accessed per row activation
system.mem_ctrls.bytesPerActivate::0-127           53     39.26%     39.26% # Bytes accessed per row activation
system.mem_ctrls.bytesPerActivate::128-255           32     23.70%     62.96% # Bytes accessed per row activation
system.mem_ctrls.bytesPerActivate::256-383           15     11.11%     74.07% # Bytes accessed per row activation
system.mem_ctrls.bytesPerActivate::384-511            5      3.70%     77.78% # Bytes accessed per row activation
system.mem_ctrls.bytesPerActivate::512-639            7      5.19%     82.96% # Bytes accessed per row activation
system.mem_ctrls.bytesPerActivate::640-767            2      1.48%     84.44% # Bytes accessed per row activation
system.mem_ctrls.bytesPerActivate::768-895            5      3.70%     88.15% # Bytes accessed per row activation
system.mem_ctrls.bytesPerActivate::896-1023            2      1.48%     89.63% # Bytes accessed per row activation
system.mem_ctrls.bytesPerActivate::1024-1151           14     10.37%    100.00% # Bytes accessed per row activation
system.mem_ctrls.bytesPerActivate::total          135                       # Bytes accessed per row activation
system.mem_ctrls.totQLat                     29069507                       # Total ticks spent queuing
system.mem_ctrls.totMemAccLat                41782007                       # Total ticks spent from burst creation until serviced by the DRAM
system.mem_ctrls.totBusLat                    3390000                       # Total ticks spent in databus transfers
system.mem_ctrls.avgQLat                     42875.38                       # Average queueing delay per DRAM burst
system.mem_ctrls.avgBusLat                    5000.00                       # Average bus latency per DRAM burst
system.mem_ctrls.avgMemAccLat                61625.38                       # Average memory access latency per DRAM burst
system.mem_ctrls.avgRdBW                         0.26                       # Average DRAM read bandwidth in MiByte/s
system.mem_ctrls.avgWrBW                         0.00                       # Average achieved write bandwidth in MiByte/s
system.mem_ctrls.avgRdBWSys                      0.26                       # Average system read bandwidth in MiByte/s
system.mem_ctrls.avgWrBWSys                      0.00                       # Average system write bandwidth in MiByte/s
system.mem_ctrls.peakBW                      12800.00                       # Theoretical peak bandwidth in MiByte/s
system.mem_ctrls.busUtil                         0.00                       # Data bus utilization in percentage
system.mem_ctrls.busUtilRead                     0.00                       # Data bus utilization in percentage for reads
system.mem_ctrls.busUtilWrite                    0.00                       # Data bus utilization in percentage for writes
system.mem_ctrls.avgRdQLen                       2.22                       # Average read queue length when enqueuing
system.mem_ctrls.avgWrQLen                       0.00                       # Average write queue length when enqueuing
system.mem_ctrls.readRowHits                      532                       # Number of row buffer hits during reads
system.mem_ctrls.writeRowHits                       0                       # Number of row buffer hits during writes
system.mem_ctrls.readRowHitRate                 78.47                       # Row buffer hit rate for reads
system.mem_ctrls.writeRowHitRate                  nan                       # Row buffer hit rate for writes
system.mem_ctrls.avgGap                  248567250.74                       # Average gap between requests
system.mem_ctrls.pageHitRate                    78.47                       # Row buffer hit rate, read and write combined
system.mem_ctrls_0.actEnergy                   578340                       # Energy for activate commands per rank (pJ)
system.mem_ctrls_0.preEnergy                   284625                       # Energy for precharge commands per rank (pJ)
system.mem_ctrls_0.readEnergy                 2977380                       # Energy for read commands per rank (pJ)
system.mem_ctrls_0.writeEnergy                      0                       # Energy for write commands per rank (pJ)
system.mem_ctrls_0.refreshEnergy         9219600.000000                       # Energy for refresh commands per rank (pJ)
system.mem_ctrls_0.actBackEnergy              6190770                       # Energy for active background per rank (pJ)
system.mem_ctrls_0.preBackEnergy               566400                       # Energy for precharge background per rank (pJ)
system.mem_ctrls_0.actPowerDownEnergy        21531180                       # Energy for active power-down per rank (pJ)
system.mem_ctrls_0.prePowerDownEnergy        11549760                       # Energy for precharge power-down per rank (pJ)
system.mem_ctrls_0.selfRefreshEnergy      40426931460                       # Energy for self refresh per rank (pJ)
system.mem_ctrls_0.totalEnergy            40479829515                       # Total energy per rank (pJ)
system.mem_ctrls_0.averagePower            240.195480                       # Core power per rank (mW)
system.mem_ctrls_0.totalIdleTime         168513555500                       # Total Idle time Per DRAM Rank
system.mem_ctrls_0.memoryStateTime::IDLE      1105000                       # Time in different power states
system.mem_ctrls_0.memoryStateTime::REF       3924000                       # Time in different power states
system.mem_ctrls_0.memoryStateTime::SREF 168436343750                       # Time in different power states
system.mem_ctrls_0.memoryStateTime::PRE_PDN     30079250                       # Time in different power states
system.mem_ctrls_0.memoryStateTime::ACT      10032250                       # Time in different power states
system.mem_ctrls_0.memoryStateTime::ACT_PDN     47205750                       # Time in different power states
system.mem_ctrls_1.actEnergy                   464100                       # Energy for activate commands per rank (pJ)
system.mem_ctrls_1.preEnergy                   227700                       # Energy for precharge commands per rank (pJ)
system.mem_ctrls_1.readEnergy                 1863540                       # Energy for read commands per rank (pJ)
system.mem_ctrls_1.writeEnergy                      0                       # Energy for write commands per rank (pJ)
system.mem_ctrls_1.refreshEnergy         21512400.000000                       # Energy for refresh commands per rank (pJ)
system.mem_ctrls_1.actBackEnergy              6976230                       # Energy for active background per rank (pJ)
system.mem_ctrls_1.preBackEnergy              1461120                       # Energy for precharge background per rank (pJ)
system.mem_ctrls_1.actPowerDownEnergy        42985980                       # Energy for active power-down per rank (pJ)
system.mem_ctrls_1.prePowerDownEnergy        31805760                       # Energy for precharge power-down per rank (pJ)
system.mem_ctrls_1.selfRefreshEnergy      40405872540                       # Energy for self refresh per rank (pJ)
system.mem_ctrls_1.totalEnergy            40513169370                       # Total energy per rank (pJ)
system.mem_ctrls_1.averagePower            240.393309                       # Core power per rank (mW)
system.mem_ctrls_1.totalIdleTime         168509516000                       # Total Idle time Per DRAM Rank
system.mem_ctrls_1.memoryStateTime::IDLE      3079000                       # Time in different power states
system.mem_ctrls_1.memoryStateTime::REF       9166000                       # Time in different power states
system.mem_ctrls_1.memoryStateTime::SREF 168332491000                       # Time in different power states
system.mem_ctrls_1.memoryStateTime::PRE_PDN     82827250                       # Time in different power states
system.mem_ctrls_1.memoryStateTime::ACT       6866750                       # Time in different power states
system.mem_ctrls_1.memoryStateTime::ACT_PDN     94260000                       # Time in different power states
system.pwrStateResidencyTicks::UNDEFINED 168528690000                       # Cumulative time (in ticks) in various power states
system.cpu.branchPred.lookups                49832067                       # Number of BP lookups
system.cpu.branchPred.condPredicted          49672466                       # Number of conditional branches predicted
system.cpu.branchPred.condIncorrect           6465414                       # Number of conditional branches incorrect
system.cpu.branchPred.BTBLookups             49766580                       # Number of BTB lookups
system.cpu.branchPred.BTBHits                49760018                       # Number of BTB hits
system.cpu.branchPred.BTBCorrect                    0                       # Number of correct BTB predictions (this stat may not work properly.
system.cpu.branchPred.BTBHitPct             99.986814                       # BTB Hit Percentage
system.cpu.branchPred.usedRAS                   53649                       # Number of times the RAS was used to get a target.
system.cpu.branchPred.RASInCorrect                  1                       # Number of incorrect RAS predictions.
system.cpu.branchPred.indirectLookups             582                       # Number of indirect predictor lookups.
system.cpu.branchPred.indirectHits                382                       # Number of indirect target hits.
system.cpu.branchPred.indirectMisses              200                       # Number of indirect misses.
system.cpu.branchPredindirectMispredicted           56                       # Number of mispredicted indirect branches.
system.cpu.branchPred.atLeastOneCorrectExpert      5225383                       # Number of mispredicts where there was at least one correct not-selected scheme.
system.cpu_voltage_domain.voltage                   1                       # Voltage in Volts
system.cpu_clk_domain.clock                       500                       # Clock period in ticks
system.cpu.dstage2_mmu.stage2_tlb.walker.pwrStateResidencyTicks::UNDEFINED 168528690000                       # Cumulative time (in ticks) in various power states
system.cpu.dstage2_mmu.stage2_tlb.walker.walks            0                       # Table walker walks requested
system.cpu.dstage2_mmu.stage2_tlb.walker.walkRequestOrigin_Requested::Data            0                       # Table walker requests started/completed, data/inst
system.cpu.dstage2_mmu.stage2_tlb.walker.walkRequestOrigin_Requested::Inst            0                       # Table walker requests started/completed, data/inst
system.cpu.dstage2_mmu.stage2_tlb.walker.walkRequestOrigin_Requested::total            0                       # Table walker requests started/completed, data/inst
system.cpu.dstage2_mmu.stage2_tlb.walker.walkRequestOrigin_Completed::Data            0                       # Table walker requests started/completed, data/inst
system.cpu.dstage2_mmu.stage2_tlb.walker.walkRequestOrigin_Completed::Inst            0                       # Table walker requests started/completed, data/inst
system.cpu.dstage2_mmu.stage2_tlb.walker.walkRequestOrigin_Completed::total            0                       # Table walker requests started/completed, data/inst
system.cpu.dstage2_mmu.stage2_tlb.walker.walkRequestOrigin::total            0                       # Table walker requests started/completed, data/inst
system.cpu.dstage2_mmu.stage2_tlb.inst_hits            0                       # ITB inst hits
system.cpu.dstage2_mmu.stage2_tlb.inst_misses            0                       # ITB inst misses
system.cpu.dstage2_mmu.stage2_tlb.read_hits            0                       # DTB read hits
system.cpu.dstage2_mmu.stage2_tlb.read_misses            0                       # DTB read misses
system.cpu.dstage2_mmu.stage2_tlb.write_hits            0                       # DTB write hits
system.cpu.dstage2_mmu.stage2_tlb.write_misses            0                       # DTB write misses
system.cpu.dstage2_mmu.stage2_tlb.flush_tlb            0                       # Number of times complete TLB was flushed
system.cpu.dstage2_mmu.stage2_tlb.flush_tlb_mva            0                       # Number of times TLB was flushed by MVA
system.cpu.dstage2_mmu.stage2_tlb.flush_tlb_mva_asid            0                       # Number of times TLB was flushed by MVA & ASID
system.cpu.dstage2_mmu.stage2_tlb.flush_tlb_asid            0                       # Number of times TLB was flushed by ASID
system.cpu.dstage2_mmu.stage2_tlb.flush_entries            0                       # Number of entries that have been flushed from TLB
system.cpu.dstage2_mmu.stage2_tlb.align_faults            0                       # Number of TLB faults due to alignment restrictions
system.cpu.dstage2_mmu.stage2_tlb.prefetch_faults            0                       # Number of TLB faults due to prefetch
system.cpu.dstage2_mmu.stage2_tlb.domain_faults            0                       # Number of TLB faults due to domain restrictions
system.cpu.dstage2_mmu.stage2_tlb.perms_faults            0                       # Number of TLB faults due to permissions restrictions
system.cpu.dstage2_mmu.stage2_tlb.read_accesses            0                       # DTB read accesses
system.cpu.dstage2_mmu.stage2_tlb.write_accesses            0                       # DTB write accesses
system.cpu.dstage2_mmu.stage2_tlb.inst_accesses            0                       # ITB inst accesses
system.cpu.dstage2_mmu.stage2_tlb.hits              0                       # DTB hits
system.cpu.dstage2_mmu.stage2_tlb.misses            0                       # DTB misses
system.cpu.dstage2_mmu.stage2_tlb.accesses            0                       # DTB accesses
system.cpu.dtb.walker.pwrStateResidencyTicks::UNDEFINED 168528690000                       # Cumulative time (in ticks) in various power states
system.cpu.dtb.walker.walks                         0                       # Table walker walks requested
system.cpu.dtb.walker.walkRequestOrigin_Requested::Data            0                       # Table walker requests started/completed, data/inst
system.cpu.dtb.walker.walkRequestOrigin_Requested::Inst            0                       # Table walker requests started/completed, data/inst
system.cpu.dtb.walker.walkRequestOrigin_Requested::total            0                       # Table walker requests started/completed, data/inst
system.cpu.dtb.walker.walkRequestOrigin_Completed::Data            0                       # Table walker requests started/completed, data/inst
system.cpu.dtb.walker.walkRequestOrigin_Completed::Inst            0                       # Table walker requests started/completed, data/inst
system.cpu.dtb.walker.walkRequestOrigin_Completed::total            0                       # Table walker requests started/completed, data/inst
system.cpu.dtb.walker.walkRequestOrigin::total            0                       # Table walker requests started/completed, data/inst
system.cpu.dtb.inst_hits                            0                       # ITB inst hits
system.cpu.dtb.inst_misses                          0                       # ITB inst misses
system.cpu.dtb.read_hits                            0                       # DTB read hits
system.cpu.dtb.read_misses                          0                       # DTB read misses
system.cpu.dtb.write_hits                           0                       # DTB write hits
system.cpu.dtb.write_misses                         0                       # DTB write misses
system.cpu.dtb.flush_tlb                            0                       # Number of times complete TLB was flushed
system.cpu.dtb.flush_tlb_mva                        0                       # Number of times TLB was flushed by MVA
system.cpu.dtb.flush_tlb_mva_asid                   0                       # Number of times TLB was flushed by MVA & ASID
system.cpu.dtb.flush_tlb_asid                       0                       # Number of times TLB was flushed by ASID
system.cpu.dtb.flush_entries                        0                       # Number of entries that have been flushed from TLB
system.cpu.dtb.align_faults                         0                       # Number of TLB faults due to alignment restrictions
system.cpu.dtb.prefetch_faults                      0                       # Number of TLB faults due to prefetch
system.cpu.dtb.domain_faults                        0                       # Number of TLB faults due to domain restrictions
system.cpu.dtb.perms_faults                         0                       # Number of TLB faults due to permissions restrictions
system.cpu.dtb.read_accesses                        0                       # DTB read accesses
system.cpu.dtb.write_accesses                       0                       # DTB write accesses
system.cpu.dtb.inst_accesses                        0                       # ITB inst accesses
system.cpu.dtb.hits                                 0                       # DTB hits
system.cpu.dtb.misses                               0                       # DTB misses
system.cpu.dtb.accesses                             0                       # DTB accesses
system.cpu.istage2_mmu.stage2_tlb.walker.pwrStateResidencyTicks::UNDEFINED 168528690000                       # Cumulative time (in ticks) in various power states
system.cpu.istage2_mmu.stage2_tlb.walker.walks            0                       # Table walker walks requested
system.cpu.istage2_mmu.stage2_tlb.walker.walkRequestOrigin_Requested::Data            0                       # Table walker requests started/completed, data/inst
system.cpu.istage2_mmu.stage2_tlb.walker.walkRequestOrigin_Requested::Inst            0                       # Table walker requests started/completed, data/inst
system.cpu.istage2_mmu.stage2_tlb.walker.walkRequestOrigin_Requested::total            0                       # Table walker requests started/completed, data/inst
system.cpu.istage2_mmu.stage2_tlb.walker.walkRequestOrigin_Completed::Data            0                       # Table walker requests started/completed, data/inst
system.cpu.istage2_mmu.stage2_tlb.walker.walkRequestOrigin_Completed::Inst            0                       # Table walker requests started/completed, data/inst
system.cpu.istage2_mmu.stage2_tlb.walker.walkRequestOrigin_Completed::total            0                       # Table walker requests started/completed, data/inst
system.cpu.istage2_mmu.stage2_tlb.walker.walkRequestOrigin::total            0                       # Table walker requests started/completed, data/inst
system.cpu.istage2_mmu.stage2_tlb.inst_hits            0                       # ITB inst hits
system.cpu.istage2_mmu.stage2_tlb.inst_misses            0                       # ITB inst misses
system.cpu.istage2_mmu.stage2_tlb.read_hits            0                       # DTB read hits
system.cpu.istage2_mmu.stage2_tlb.read_misses            0                       # DTB read misses
system.cpu.istage2_mmu.stage2_tlb.write_hits            0                       # DTB write hits
system.cpu.istage2_mmu.stage2_tlb.write_misses            0                       # DTB write misses
system.cpu.istage2_mmu.stage2_tlb.flush_tlb            0                       # Number of times complete TLB was flushed
system.cpu.istage2_mmu.stage2_tlb.flush_tlb_mva            0                       # Number of times TLB was flushed by MVA
system.cpu.istage2_mmu.stage2_tlb.flush_tlb_mva_asid            0                       # Number of times TLB was flushed by MVA & ASID
system.cpu.istage2_mmu.stage2_tlb.flush_tlb_asid            0                       # Number of times TLB was flushed by ASID
system.cpu.istage2_mmu.stage2_tlb.flush_entries            0                       # Number of entries that have been flushed from TLB
system.cpu.istage2_mmu.stage2_tlb.align_faults            0                       # Number of TLB faults due to alignment restrictions
system.cpu.istage2_mmu.stage2_tlb.prefetch_faults            0                       # Number of TLB faults due to prefetch
system.cpu.istage2_mmu.stage2_tlb.domain_faults            0                       # Number of TLB faults due to domain restrictions
system.cpu.istage2_mmu.stage2_tlb.perms_faults            0                       # Number of TLB faults due to permissions restrictions
system.cpu.istage2_mmu.stage2_tlb.read_accesses            0                       # DTB read accesses
system.cpu.istage2_mmu.stage2_tlb.write_accesses            0                       # DTB write accesses
system.cpu.istage2_mmu.stage2_tlb.inst_accesses            0                       # ITB inst accesses
system.cpu.istage2_mmu.stage2_tlb.hits              0                       # DTB hits
system.cpu.istage2_mmu.stage2_tlb.misses            0                       # DTB misses
system.cpu.istage2_mmu.stage2_tlb.accesses            0                       # DTB accesses
system.cpu.itb.walker.pwrStateResidencyTicks::UNDEFINED 168528690000                       # Cumulative time (in ticks) in various power states
system.cpu.itb.walker.walks                         0                       # Table walker walks requested
system.cpu.itb.walker.walkRequestOrigin_Requested::Data            0                       # Table walker requests started/completed, data/inst
system.cpu.itb.walker.walkRequestOrigin_Requested::Inst            0                       # Table walker requests started/completed, data/inst
system.cpu.itb.walker.walkRequestOrigin_Requested::total            0                       # Table walker requests started/completed, data/inst
system.cpu.itb.walker.walkRequestOrigin_Completed::Data            0                       # Table walker requests started/completed, data/inst
system.cpu.itb.walker.walkRequestOrigin_Completed::Inst            0                       # Table walker requests started/completed, data/inst
system.cpu.itb.walker.walkRequestOrigin_Completed::total            0                       # Table walker requests started/completed, data/inst
system.cpu.itb.walker.walkRequestOrigin::total            0                       # Table walker requests started/completed, data/inst
system.cpu.itb.inst_hits                            0                       # ITB inst hits
system.cpu.itb.inst_misses                          0                       # ITB inst misses
system.cpu.itb.read_hits                            0                       # DTB read hits
system.cpu.itb.read_misses                          0                       # DTB read misses
system.cpu.itb.write_hits                           0                       # DTB write hits
system.cpu.itb.write_misses                         0                       # DTB write misses
system.cpu.itb.flush_tlb                            0                       # Number of times complete TLB was flushed
system.cpu.itb.flush_tlb_mva                        0                       # Number of times TLB was flushed by MVA
system.cpu.itb.flush_tlb_mva_asid                   0                       # Number of times TLB was flushed by MVA & ASID
system.cpu.itb.flush_tlb_asid                       0                       # Number of times TLB was flushed by ASID
system.cpu.itb.flush_entries                        0                       # Number of entries that have been flushed from TLB
system.cpu.itb.align_faults                         0                       # Number of TLB faults due to alignment restrictions
system.cpu.itb.prefetch_faults                      0                       # Number of TLB faults due to prefetch
system.cpu.itb.domain_faults                        0                       # Number of TLB faults due to domain restrictions
system.cpu.itb.perms_faults                         0                       # Number of TLB faults due to permissions restrictions
system.cpu.itb.read_accesses                        0                       # DTB read accesses
system.cpu.itb.write_accesses                       0                       # DTB write accesses
system.cpu.itb.inst_accesses                        0                       # ITB inst accesses
system.cpu.itb.hits                                 0                       # DTB hits
system.cpu.itb.misses                               0                       # DTB misses
system.cpu.itb.accesses                             0                       # DTB accesses
system.cpu.workload.numSyscalls                    11                       # Number of system calls
system.cpu.pwrStateResidencyTicks::ON    168528690000                       # Cumulative time (in ticks) in various power states
system.cpu.numCycles                        337057381                       # number of cpu cycles simulated
system.cpu.numWorkItemsStarted                      0                       # number of work items this cpu started
system.cpu.numWorkItemsCompleted                    0                       # number of work items this cpu completed
system.cpu.fetch.icacheStallCycles            6475632                       # Number of cycles fetch is stalled on an Icache miss
system.cpu.fetch.Insts                      674434403                       # Number of instructions fetch has processed
system.cpu.fetch.Branches                    49832067                       # Number of branches that fetch encountered
system.cpu.fetch.predictedBranches           49814049                       # Number of branches that fetch has predicted taken
system.cpu.fetch.Cycles                     324076365                       # Number of cycles fetch has run and was not squashing or blocked
system.cpu.fetch.SquashCycles                12934090                       # Number of cycles fetch has spent squashing
system.cpu.fetch.MiscStallCycles                   29                       # Number of cycles fetch has spent waiting on interrupts, or bad addresses, or out of MSHRs
system.cpu.fetch.IcacheWaitRetryStallCycles          434                       # Number of stall cycles due to full MSHR
system.cpu.fetch.CacheLines                 190390604                       # Number of cache lines fetched
system.cpu.fetch.IcacheSquashes                   242                       # Number of outstanding Icache misses that were squashed
system.cpu.fetch.rateDist::samples          337019505                       # Number of instructions fetched each cycle (Total)
system.cpu.fetch.rateDist::mean              2.001230                       # Number of instructions fetched each cycle (Total)
system.cpu.fetch.rateDist::stdev             1.029408                       # Number of instructions fetched each cycle (Total)
system.cpu.fetch.rateDist::underflows               0      0.00%      0.00% # Number of instructions fetched each cycle (Total)
system.cpu.fetch.rateDist::0                 13036640      3.87%      3.87% # Number of instructions fetched each cycle (Total)
system.cpu.fetch.rateDist::1                139249501     41.32%     45.19% # Number of instructions fetched each cycle (Total)
system.cpu.fetch.rateDist::2                 18996005      5.64%     50.82% # Number of instructions fetched each cycle (Total)
system.cpu.fetch.rateDist::3                165737359     49.18%    100.00% # Number of instructions fetched each cycle (Total)
system.cpu.fetch.rateDist::overflows                0      0.00%    100.00% # Number of instructions fetched each cycle (Total)
system.cpu.fetch.rateDist::min_value                0                       # Number of instructions fetched each cycle (Total)
system.cpu.fetch.rateDist::max_value                3                       # Number of instructions fetched each cycle (Total)
system.cpu.fetch.rateDist::total            337019505                       # Number of instructions fetched each cycle (Total)
system.cpu.fetch.branchRate                  0.147844                       # Number of branch fetches per cycle
system.cpu.fetch.rate                        2.000948                       # Number of inst fetches per cycle
system.cpu.decode.IdleCycles                 18995299                       # Number of cycles decode is idle
system.cpu.decode.BlockedCycles              19300554                       # Number of cycles decode is blocked
system.cpu.decode.RunCycles                 280233934                       # Number of cycles decode is running
system.cpu.decode.UnblockCycles              12022862                       # Number of cycles decode is unblocking
system.cpu.decode.SquashCycles                6466856                       # Number of cycles decode is squashing
system.cpu.decode.BranchResolved             44325084                       # Number of times decode resolved a branch
system.cpu.decode.BranchMispred                   191                       # Number of times decode detected a branch misprediction
system.cpu.decode.DecodedInsts              639358746                       # Number of instructions handled by decode
system.cpu.decode.SquashedInsts              25885790                       # Number of squashed instructions handled by decode
system.cpu.rename.SquashCycles                6466856                       # Number of cycles rename is squashing
system.cpu.rename.IdleCycles                 38560187                       # Number of cycles rename is idle
system.cpu.rename.BlockCycles                18854571                       # Number of cycles rename is blocking
system.cpu.rename.serializeStallCycles          11226                       # count of cycles rename stalled for serializing inst
system.cpu.rename.RunCycles                 272674483                       # Number of cycles rename is running
system.cpu.rename.UnblockCycles                452182                       # Number of cycles rename is unblocking
system.cpu.rename.RenamedInsts              613490099                       # Number of instructions processed by rename
system.cpu.rename.SquashedInsts              17134169                       # Number of squashed instructions processed by rename
system.cpu.rename.ROBFullEvents                312332                       # Number of times rename has blocked due to ROB full
system.cpu.rename.SQFullEvents                   6809                       # Number of times rename has blocked due to SQ full
system.cpu.rename.FullRegisterEvents              694                       # Number of times there has been no free registers
system.cpu.rename.RenamedOperands           656764968                       # Number of destination operands rename has renamed
system.cpu.rename.RenameLookups             759644342                       # Number of register rename lookups that rename has made
system.cpu.rename.int_rename_lookups        627616456                       # Number of integer rename lookups
system.cpu.rename.vec_rename_lookups             7607                       # Number of vector rename lookups
system.cpu.rename.CommittedMaps             425877352                       # Number of HB maps that are committed
system.cpu.rename.UndoneMaps                230887616                       # Number of HB maps that are undone due to squashing
system.cpu.rename.serializingInsts                374                       # count of serializing insts renamed
system.cpu.rename.tempSerializingInsts            251                       # count of temporary serializing insts renamed
system.cpu.rename.skidInsts                    662511                       # count of insts added to the skid buffer
system.cpu.memDep0.insertedLoads            195495495                       # Number of loads inserted to the mem dependence unit.
system.cpu.memDep0.insertedStores            44395112                       # Number of stores inserted to the mem dependence unit.
system.cpu.memDep0.conflictingLoads          58912991                       # Number of conflicting loads.
system.cpu.memDep0.conflictingStores                4                       # Number of conflicting stores.
system.cpu.iq.iqInstsAdded                  594437375                       # Number of instructions added to the IQ (excludes non-spec)
system.cpu.iq.iqNonSpecInstsAdded                 252                       # Number of non-speculative instructions added to the IQ
system.cpu.iq.iqInstsIssued                 529489276                       # Number of instructions issued
system.cpu.iq.iqSquashedInstsIssued           4325421                       # Number of squashed instructions issued
system.cpu.iq.iqSquashedInstsExamined       186811245                       # Number of squashed instructions iterated over during squash; mainly for profiling
system.cpu.iq.iqSquashedOperandsExamined    137947870                       # Number of squashed operands that are examined and possibly removed from graph
system.cpu.iq.iqSquashedNonSpecRemoved             24                       # Number of squashed non-spec instructions that were removed
system.cpu.iq.issued_per_cycle::samples     337019505                       # Number of insts issued each cycle
system.cpu.iq.issued_per_cycle::mean         1.571094                       # Number of insts issued each cycle
system.cpu.iq.issued_per_cycle::stdev        1.123020                       # Number of insts issued each cycle
system.cpu.iq.issued_per_cycle::underflows            0      0.00%      0.00% # Number of insts issued each cycle
system.cpu.iq.issued_per_cycle::0            82334548     24.43%     24.43% # Number of insts issued each cycle
system.cpu.iq.issued_per_cycle::1            66998626     19.88%     44.31% # Number of insts issued each cycle
system.cpu.iq.issued_per_cycle::2           102360042     30.37%     74.68% # Number of insts issued each cycle
system.cpu.iq.issued_per_cycle::3            83534688     24.79%     99.47% # Number of insts issued each cycle
system.cpu.iq.issued_per_cycle::4             1791503      0.53%    100.00% # Number of insts issued each cycle
system.cpu.iq.issued_per_cycle::5                  98      0.00%    100.00% # Number of insts issued each cycle
system.cpu.iq.issued_per_cycle::6                   0      0.00%    100.00% # Number of insts issued each cycle
system.cpu.iq.issued_per_cycle::7                   0      0.00%    100.00% # Number of insts issued each cycle
system.cpu.iq.issued_per_cycle::8                   0      0.00%    100.00% # Number of insts issued each cycle
system.cpu.iq.issued_per_cycle::overflows            0      0.00%    100.00% # Number of insts issued each cycle
system.cpu.iq.issued_per_cycle::min_value            0                       # Number of insts issued each cycle
system.cpu.iq.issued_per_cycle::max_value            5                       # Number of insts issued each cycle
system.cpu.iq.issued_per_cycle::total       337019505                       # Number of insts issued each cycle
system.cpu.iq.fu_full::No_OpClass                   0      0.00%      0.00% # attempts to use FU when none available
system.cpu.iq.fu_full::IntAlu                 9603340     10.09%     10.09% # attempts to use FU when none available
system.cpu.iq.fu_full::IntMult                      0      0.00%     10.09% # attempts to use FU when none available
system.cpu.iq.fu_full::IntDiv                       0      0.00%     10.09% # attempts to use FU when none available
system.cpu.iq.fu_full::FloatAdd                     0      0.00%     10.09% # attempts to use FU when none available
system.cpu.iq.fu_full::FloatCmp                     0      0.00%     10.09% # attempts to use FU when none available
system.cpu.iq.fu_full::FloatCvt                     0      0.00%     10.09% # attempts to use FU when none available
system.cpu.iq.fu_full::FloatMult                    0      0.00%     10.09% # attempts to use FU when none available
system.cpu.iq.fu_full::FloatMultAcc                 0      0.00%     10.09% # attempts to use FU when none available
system.cpu.iq.fu_full::FloatDiv                     0      0.00%     10.09% # attempts to use FU when none available
system.cpu.iq.fu_full::FloatMisc                    0      0.00%     10.09% # attempts to use FU when none available
system.cpu.iq.fu_full::FloatSqrt                    0      0.00%     10.09% # attempts to use FU when none available
system.cpu.iq.fu_full::SimdAdd                      0      0.00%     10.09% # attempts to use FU when none available
system.cpu.iq.fu_full::SimdAddAcc                   0      0.00%     10.09% # attempts to use FU when none available
system.cpu.iq.fu_full::SimdAlu                      6      0.00%     10.09% # attempts to use FU when none available
system.cpu.iq.fu_full::SimdCmp                    105      0.00%     10.09% # attempts to use FU when none available
system.cpu.iq.fu_full::SimdCvt                      0      0.00%     10.09% # attempts to use FU when none available
system.cpu.iq.fu_full::SimdMisc                     0      0.00%     10.09% # attempts to use FU when none available
system.cpu.iq.fu_full::SimdMult                     0      0.00%     10.09% # attempts to use FU when none available
system.cpu.iq.fu_full::SimdMultAcc                  0      0.00%     10.09% # attempts to use FU when none available
system.cpu.iq.fu_full::SimdShift                    0      0.00%     10.09% # attempts to use FU when none available
system.cpu.iq.fu_full::SimdShiftAcc                 0      0.00%     10.09% # attempts to use FU when none available
system.cpu.iq.fu_full::SimdSqrt                     0      0.00%     10.09% # attempts to use FU when none available
system.cpu.iq.fu_full::SimdFloatAdd                 0      0.00%     10.09% # attempts to use FU when none available
system.cpu.iq.fu_full::SimdFloatAlu                 0      0.00%     10.09% # attempts to use FU when none available
system.cpu.iq.fu_full::SimdFloatCmp                 0      0.00%     10.09% # attempts to use FU when none available
system.cpu.iq.fu_full::SimdFloatCvt                 0      0.00%     10.09% # attempts to use FU when none available
system.cpu.iq.fu_full::SimdFloatDiv                 0      0.00%     10.09% # attempts to use FU when none available
system.cpu.iq.fu_full::SimdFloatMisc                0      0.00%     10.09% # attempts to use FU when none available
system.cpu.iq.fu_full::SimdFloatMult                0      0.00%     10.09% # attempts to use FU when none available
system.cpu.iq.fu_full::SimdFloatMultAcc             0      0.00%     10.09% # attempts to use FU when none available
system.cpu.iq.fu_full::SimdFloatSqrt                0      0.00%     10.09% # attempts to use FU when none available
system.cpu.iq.fu_full::MemRead               79686253     83.72%     93.81% # attempts to use FU when none available
system.cpu.iq.fu_full::MemWrite               5888440      6.19%    100.00% # attempts to use FU when none available
system.cpu.iq.fu_full::FloatMemRead                 0      0.00%    100.00% # attempts to use FU when none available
system.cpu.iq.fu_full::FloatMemWrite                0      0.00%    100.00% # attempts to use FU when none available
system.cpu.iq.fu_full::IprAccess                    0      0.00%    100.00% # attempts to use FU when none available
system.cpu.iq.fu_full::InstPrefetch                 0      0.00%    100.00% # attempts to use FU when none available
system.cpu.iq.FU_type_0::No_OpClass               203      0.00%      0.00% # Type of FU issued
system.cpu.iq.FU_type_0::IntAlu             313060706     59.13%     59.13% # Type of FU issued
system.cpu.iq.FU_type_0::IntMult               151506      0.03%     59.15% # Type of FU issued
system.cpu.iq.FU_type_0::IntDiv                     2      0.00%     59.15% # Type of FU issued
system.cpu.iq.FU_type_0::FloatAdd                   0      0.00%     59.15% # Type of FU issued
system.cpu.iq.FU_type_0::FloatCmp                   0      0.00%     59.15% # Type of FU issued
system.cpu.iq.FU_type_0::FloatCvt                   0      0.00%     59.15% # Type of FU issued
system.cpu.iq.FU_type_0::FloatMult                  0      0.00%     59.15% # Type of FU issued
system.cpu.iq.FU_type_0::FloatMultAcc               0      0.00%     59.15% # Type of FU issued
system.cpu.iq.FU_type_0::FloatDiv                   0      0.00%     59.15% # Type of FU issued
system.cpu.iq.FU_type_0::FloatMisc                  0      0.00%     59.15% # Type of FU issued
system.cpu.iq.FU_type_0::FloatSqrt                  0      0.00%     59.15% # Type of FU issued
system.cpu.iq.FU_type_0::SimdAdd                  511      0.00%     59.15% # Type of FU issued
system.cpu.iq.FU_type_0::SimdAddAcc                 0      0.00%     59.15% # Type of FU issued
system.cpu.iq.FU_type_0::SimdAlu                  908      0.00%     59.15% # Type of FU issued
system.cpu.iq.FU_type_0::SimdCmp                  812      0.00%     59.15% # Type of FU issued
system.cpu.iq.FU_type_0::SimdCvt                    0      0.00%     59.15% # Type of FU issued
system.cpu.iq.FU_type_0::SimdMisc                 707      0.00%     59.15% # Type of FU issued
system.cpu.iq.FU_type_0::SimdMult                   0      0.00%     59.15% # Type of FU issued
system.cpu.iq.FU_type_0::SimdMultAcc                0      0.00%     59.15% # Type of FU issued
system.cpu.iq.FU_type_0::SimdShift                  0      0.00%     59.15% # Type of FU issued
system.cpu.iq.FU_type_0::SimdShiftAcc               0      0.00%     59.15% # Type of FU issued
system.cpu.iq.FU_type_0::SimdSqrt                   0      0.00%     59.15% # Type of FU issued
system.cpu.iq.FU_type_0::SimdFloatAdd               0      0.00%     59.15% # Type of FU issued
system.cpu.iq.FU_type_0::SimdFloatAlu               0      0.00%     59.15% # Type of FU issued
system.cpu.iq.FU_type_0::SimdFloatCmp               0      0.00%     59.15% # Type of FU issued
system.cpu.iq.FU_type_0::SimdFloatCvt               0      0.00%     59.15% # Type of FU issued
system.cpu.iq.FU_type_0::SimdFloatDiv               0      0.00%     59.15% # Type of FU issued
system.cpu.iq.FU_type_0::SimdFloatMisc              0      0.00%     59.15% # Type of FU issued
system.cpu.iq.FU_type_0::SimdFloatMult              0      0.00%     59.15% # Type of FU issued
system.cpu.iq.FU_type_0::SimdFloatMultAcc            0      0.00%     59.15% # Type of FU issued
system.cpu.iq.FU_type_0::SimdFloatSqrt              0      0.00%     59.15% # Type of FU issued
system.cpu.iq.FU_type_0::MemRead            177802557     33.58%     92.73% # Type of FU issued
system.cpu.iq.FU_type_0::MemWrite            38471364      7.27%    100.00% # Type of FU issued
system.cpu.iq.FU_type_0::FloatMemRead               0      0.00%    100.00% # Type of FU issued
system.cpu.iq.FU_type_0::FloatMemWrite              0      0.00%    100.00% # Type of FU issued
system.cpu.iq.FU_type_0::IprAccess                  0      0.00%    100.00% # Type of FU issued
system.cpu.iq.FU_type_0::InstPrefetch               0      0.00%    100.00% # Type of FU issued
system.cpu.iq.FU_type_0::total              529489276                       # Type of FU issued
system.cpu.iq.rate                           1.570917                       # Inst issue rate
system.cpu.iq.fu_busy_cnt                    95178144                       # FU busy when requested
system.cpu.iq.fu_busy_rate                   0.179755                       # FU busy rate (busy events/executed inst)
system.cpu.iq.int_inst_queue_reads         1495488025                       # Number of integer instruction queue reads
system.cpu.iq.int_inst_queue_writes         781243777                       # Number of integer instruction queue writes
system.cpu.iq.int_inst_queue_wakeup_accesses    509563177                       # Number of integer instruction queue wakeup accesses
system.cpu.iq.fp_inst_queue_reads                   0                       # Number of floating instruction queue reads
system.cpu.iq.fp_inst_queue_writes                  0                       # Number of floating instruction queue writes
system.cpu.iq.fp_inst_queue_wakeup_accesses            0                       # Number of floating instruction queue wakeup accesses
system.cpu.iq.int_alu_accesses              624659783                       # Number of integer alu accesses
system.cpu.iq.fp_alu_accesses                       0                       # Number of floating point alu accesses
system.cpu.iew.lsq.thread0.forwLoads         69520449                       # Number of loads that had data forwarded from stores
system.cpu.iew.lsq.thread0.invAddrLoads             0                       # Number of loads ignored due to an invalid address
system.cpu.iew.lsq.thread0.squashedLoads     62358430                       # Number of loads squashed
system.cpu.iew.lsq.thread0.ignoredResponses      1584772                       # Number of memory responses ignored because the instruction is squashed
system.cpu.iew.lsq.thread0.memOrderViolation         2013                       # Number of memory ordering violations
system.cpu.iew.lsq.thread0.squashedStores     12339651                       # Number of stores squashed
system.cpu.iew.lsq.thread0.invAddrSwpfs             0                       # Number of software prefetches ignored due to an invalid address
system.cpu.iew.lsq.thread0.blockedLoads             0                       # Number of blocked loads due to partial load-store forwarding
system.cpu.iew.lsq.thread0.rescheduledLoads          110                       # Number of loads that were rescheduled
system.cpu.iew.lsq.thread0.cacheBlocked            51                       # Number of times an access to memory failed due to the cache being blocked
system.cpu.iew.iewIdleCycles                        0                       # Number of cycles IEW is idle
system.cpu.iew.iewSquashCycles                6466856                       # Number of cycles IEW is squashing
system.cpu.iew.iewBlockCycles                18800033                       # Number of cycles IEW is blocking
system.cpu.iew.iewUnblockCycles                    23                       # Number of cycles IEW is unblocking
system.cpu.iew.iewDispatchedInsts           594438133                       # Number of instructions dispatched to IQ
system.cpu.iew.iewDispSquashedInsts                 0                       # Number of squashed instructions skipped by dispatch
system.cpu.iew.iewDispLoadInsts             195495495                       # Number of dispatched load instructions
system.cpu.iew.iewDispStoreInsts             44395112                       # Number of dispatched store instructions
system.cpu.iew.iewDispNonSpecInsts                251                       # Number of dispatched non-speculative instructions
system.cpu.iew.iewIQFullEvents                      0                       # Number of times the IQ has become full, causing a stall
system.cpu.iew.iewLSQFullEvents                    23                       # Number of times the LSQ has become full, causing a stall
system.cpu.iew.memOrderViolationEvents           2013                       # Number of memory order violations
system.cpu.iew.predictedTakenIncorrect        6493944                       # Number of branches that were predicted taken incorrectly
system.cpu.iew.predictedNotTakenIncorrect         1415                       # Number of branches that were predicted not taken incorrectly
system.cpu.iew.branchMispredicts              6495359                       # Number of branch mispredicts detected at execute
system.cpu.iew.iewExecutedInsts             516063703                       # Number of executed instructions
system.cpu.iew.iewExecLoadInsts             166226513                       # Number of load instructions executed
system.cpu.iew.iewExecSquashedInsts          13425573                       # Number of squashed instructions skipped in execute
system.cpu.iew.exec_swp                             0                       # number of swp insts executed
system.cpu.iew.exec_nop                           506                       # number of nop insts executed
system.cpu.iew.exec_refs                    204696458                       # number of memory reference insts executed
system.cpu.iew.exec_branches                 31238049                       # Number of branches executed
system.cpu.iew.exec_stores                   38469945                       # Number of stores executed
system.cpu.iew.exec_rate                     1.531086                       # Inst execution rate
system.cpu.iew.wb_sent                      514426431                       # cumulative count of insts sent to commit
system.cpu.iew.wb_count                     509568331                       # cumulative count of insts written-back
system.cpu.iew.wb_producers                 438452426                       # num instructions producing a value
system.cpu.iew.wb_consumers                 500671620                       # num instructions consuming a value
system.cpu.iew.wb_rate                       1.511815                       # insts written-back per cycle
system.cpu.iew.wb_fanout                     0.875729                       # average fanout of values written-back
system.cpu.commit.commitSquashedInsts       169940318                       # The number of squashed insts skipped by commit
system.cpu.commit.commitNonSpecStalls             228                       # The number of times commit has been forced to stall to communicate backwards
system.cpu.commit.branchMispredicts           6465225                       # The number of times a branch was mispredicted
system.cpu.commit.committed_per_cycle::samples    311752616                       # Number of insts commited each cycle
system.cpu.commit.committed_per_cycle::mean     1.307533                       # Number of insts commited each cycle
system.cpu.commit.committed_per_cycle::stdev     2.083550                       # Number of insts commited each cycle
system.cpu.commit.committed_per_cycle::underflows            0      0.00%      0.00% # Number of insts commited each cycle
system.cpu.commit.committed_per_cycle::0    171301003     54.95%     54.95% # Number of insts commited each cycle
system.cpu.commit.committed_per_cycle::1     70099245     22.49%     77.43% # Number of insts commited each cycle
system.cpu.commit.committed_per_cycle::2      7115800      2.28%     79.72% # Number of insts commited each cycle
system.cpu.commit.committed_per_cycle::3      6134450      1.97%     81.68% # Number of insts commited each cycle
system.cpu.commit.committed_per_cycle::4     23415840      7.51%     89.19% # Number of insts commited each cycle
system.cpu.commit.committed_per_cycle::5      8476368      2.72%     91.91% # Number of insts commited each cycle
system.cpu.commit.committed_per_cycle::6     12534880      4.02%     95.93% # Number of insts commited each cycle
system.cpu.commit.committed_per_cycle::7      7762234      2.49%     98.42% # Number of insts commited each cycle
system.cpu.commit.committed_per_cycle::8      4912796      1.58%    100.00% # Number of insts commited each cycle
system.cpu.commit.committed_per_cycle::overflows            0      0.00%    100.00% # Number of insts commited each cycle
system.cpu.commit.committed_per_cycle::min_value            0                       # Number of insts commited each cycle
system.cpu.commit.committed_per_cycle::max_value            8                       # Number of insts commited each cycle
system.cpu.commit.committed_per_cycle::total    311752616                       # Number of insts commited each cycle
system.cpu.commit.committedInsts            407615221                       # Number of instructions committed
system.cpu.commit.committedOps              407626681                       # Number of ops (including micro ops) committed
system.cpu.commit.swp_count                         0                       # Number of s/w prefetches committed
system.cpu.commit.refs                      165192526                       # Number of memory references committed
system.cpu.commit.loads                     133137065                       # Number of loads committed
system.cpu.commit.membars                         216                       # Number of memory barriers committed
system.cpu.commit.branches                   25363647                       # Number of branches committed
system.cpu.commit.vec_insts                      5148                       # Number of committed Vector instructions.
system.cpu.commit.fp_insts                          0                       # Number of committed floating point instructions.
system.cpu.commit.int_insts                 382368518                       # Number of committed integer instructions.
system.cpu.commit.function_calls                51392                       # Number of function calls committed.
system.cpu.commit.op_class_0::No_OpClass          202      0.00%      0.00% # Class of committed instruction
system.cpu.commit.op_class_0::IntAlu        242280514     59.44%     59.44% # Class of committed instruction
system.cpu.commit.op_class_0::IntMult          150503      0.04%     59.47% # Class of committed instruction
system.cpu.commit.op_class_0::IntDiv                2      0.00%     59.47% # Class of committed instruction
system.cpu.commit.op_class_0::FloatAdd              0      0.00%     59.47% # Class of committed instruction
system.cpu.commit.op_class_0::FloatCmp              0      0.00%     59.47% # Class of committed instruction
system.cpu.commit.op_class_0::FloatCvt              0      0.00%     59.47% # Class of committed instruction
system.cpu.commit.op_class_0::FloatMult             0      0.00%     59.47% # Class of committed instruction
system.cpu.commit.op_class_0::FloatMultAcc            0      0.00%     59.47% # Class of committed instruction
system.cpu.commit.op_class_0::FloatDiv              0      0.00%     59.47% # Class of committed instruction
system.cpu.commit.op_class_0::FloatMisc             0      0.00%     59.47% # Class of committed instruction
system.cpu.commit.op_class_0::FloatSqrt             0      0.00%     59.47% # Class of committed instruction
system.cpu.commit.op_class_0::SimdAdd             511      0.00%     59.47% # Class of committed instruction
system.cpu.commit.op_class_0::SimdAddAcc            0      0.00%     59.47% # Class of committed instruction
system.cpu.commit.op_class_0::SimdAlu             908      0.00%     59.47% # Class of committed instruction
system.cpu.commit.op_class_0::SimdCmp             808      0.00%     59.47% # Class of committed instruction
system.cpu.commit.op_class_0::SimdCvt               0      0.00%     59.47% # Class of committed instruction
system.cpu.commit.op_class_0::SimdMisc            707      0.00%     59.47% # Class of committed instruction
system.cpu.commit.op_class_0::SimdMult              0      0.00%     59.47% # Class of committed instruction
system.cpu.commit.op_class_0::SimdMultAcc            0      0.00%     59.47% # Class of committed instruction
system.cpu.commit.op_class_0::SimdShift             0      0.00%     59.47% # Class of committed instruction
system.cpu.commit.op_class_0::SimdShiftAcc            0      0.00%     59.47% # Class of committed instruction
system.cpu.commit.op_class_0::SimdSqrt              0      0.00%     59.47% # Class of committed instruction
system.cpu.commit.op_class_0::SimdFloatAdd            0      0.00%     59.47% # Class of committed instruction
system.cpu.commit.op_class_0::SimdFloatAlu            0      0.00%     59.47% # Class of committed instruction
system.cpu.commit.op_class_0::SimdFloatCmp            0      0.00%     59.47% # Class of committed instruction
system.cpu.commit.op_class_0::SimdFloatCvt            0      0.00%     59.47% # Class of committed instruction
system.cpu.commit.op_class_0::SimdFloatDiv            0      0.00%     59.47% # Class of committed instruction
system.cpu.commit.op_class_0::SimdFloatMisc            0      0.00%     59.47% # Class of committed instruction
system.cpu.commit.op_class_0::SimdFloatMult            0      0.00%     59.47% # Class of committed instruction
system.cpu.commit.op_class_0::SimdFloatMultAcc            0      0.00%     59.47% # Class of committed instruction
system.cpu.commit.op_class_0::SimdFloatSqrt            0      0.00%     59.47% # Class of committed instruction
system.cpu.commit.op_class_0::MemRead       133137065     32.66%     92.14% # Class of committed instruction
system.cpu.commit.op_class_0::MemWrite       32055461      7.86%    100.00% # Class of committed instruction
[...]
system.l2.ReadCleanReq_miss_rate::cpu.inst     0.975610                       # miss rate for ReadCleanReq accesses
system.l2.ReadCleanReq_miss_rate::total      0.975610                       # miss rate for ReadCleanReq accesses
system.l2.ReadSharedReq_miss_rate::cpu.data     0.961165                       # miss rate for ReadSharedReq accesses
system.l2.ReadSharedReq_miss_rate::total     0.961165                       # miss rate for ReadSharedReq accesses
system.l2.demand_miss_rate::cpu.inst         0.975610                       # miss rate for demand accesses
system.l2.demand_miss_rate::cpu.data         0.750000                       # miss rate for demand accesses
system.l2.demand_miss_rate::total            0.889728                       # miss rate for demand accesses
system.l2.overall_miss_rate::cpu.inst        0.975610                       # miss rate for overall accesses
system.l2.overall_miss_rate::cpu.data        0.750000                       # miss rate for overall accesses
system.l2.overall_miss_rate::total           0.889728                       # miss rate for overall accesses
system.l2.ReadExReq_avg_miss_latency::cpu.data 120638.888889                       # average ReadExReq miss latency
system.l2.ReadExReq_avg_miss_latency::total 120638.888889                       # average ReadExReq miss latency
system.l2.ReadCleanReq_avg_miss_latency::cpu.inst 83867.500000                       # average ReadCleanReq miss latency
system.l2.ReadCleanReq_avg_miss_latency::total 83867.500000                       # average ReadCleanReq miss latency
system.l2.ReadSharedReq_avg_miss_latency::cpu.data 92808.080808                       # average ReadSharedReq miss latency
system.l2.ReadSharedReq_avg_miss_latency::total 92808.080808                       # average ReadSharedReq miss latency
system.l2.demand_avg_miss_latency::cpu.inst 83867.500000                       # average overall miss latency
system.l2.demand_avg_miss_latency::cpu.data 106060.846561                       # average overall miss latency
system.l2.demand_avg_miss_latency::total 90988.964346                       # average overall miss latency
system.l2.overall_avg_miss_latency::cpu.inst 83867.500000                       # average overall miss latency
system.l2.overall_avg_miss_latency::cpu.data 106060.846561                       # average overall miss latency
system.l2.overall_avg_miss_latency::total 90988.964346                       # average overall miss latency
system.l2.blocked_cycles::no_mshrs                  0                       # number of cycles access was blocked
system.l2.blocked_cycles::no_targets                0                       # number of cycles access was blocked
system.l2.blocked::no_mshrs                         0                       # number of cycles access was blocked
system.l2.blocked::no_targets                       0                       # number of cycles access was blocked
system.l2.avg_blocked_cycles::no_mshrs            nan                       # average number of cycles each access was blocked
system.l2.avg_blocked_cycles::no_targets          nan                       # average number of cycles each access was blocked
system.l2.ReadExReq_mshr_hits::cpu.data             1                       # number of ReadExReq MSHR hits
system.l2.ReadExReq_mshr_hits::total                1                       # number of ReadExReq MSHR hits
system.l2.ReadSharedReq_mshr_hits::cpu.data            4                       # number of ReadSharedReq MSHR hits
system.l2.ReadSharedReq_mshr_hits::total            4                       # number of ReadSharedReq MSHR hits
system.l2.demand_mshr_hits::cpu.data                5                       # number of demand (read+write) MSHR hits
system.l2.demand_mshr_hits::total                   5                       # number of demand (read+write) MSHR hits
system.l2.overall_mshr_hits::cpu.data               5                       # number of overall MSHR hits
system.l2.overall_mshr_hits::total                  5                       # number of overall MSHR hits
system.l2.HardPFReq_mshr_misses::l2.prefetcher          116                       # number of HardPFReq MSHR misses
system.l2.HardPFReq_mshr_misses::total            116                       # number of HardPFReq MSHR misses
system.l2.ReadExReq_mshr_misses::cpu.data           89                       # number of ReadExReq MSHR misses
system.l2.ReadExReq_mshr_misses::total             89                       # number of ReadExReq MSHR misses
system.l2.ReadCleanReq_mshr_misses::cpu.inst          400                       # number of ReadCleanReq MSHR misses
system.l2.ReadCleanReq_mshr_misses::total          400                       # number of ReadCleanReq MSHR misses
system.l2.ReadSharedReq_mshr_misses::cpu.data           95                       # number of ReadSharedReq MSHR misses
system.l2.ReadSharedReq_mshr_misses::total           95                       # number of ReadSharedReq MSHR misses
system.l2.demand_mshr_misses::cpu.inst            400                       # number of demand (read+write) MSHR misses
system.l2.demand_mshr_misses::cpu.data            184                       # number of demand (read+write) MSHR misses
system.l2.demand_mshr_misses::total               584                       # number of demand (read+write) MSHR misses
system.l2.overall_mshr_misses::cpu.inst           400                       # number of overall MSHR misses
system.l2.overall_mshr_misses::cpu.data           184                       # number of overall MSHR misses
system.l2.overall_mshr_misses::l2.prefetcher          116                       # number of overall MSHR misses
system.l2.overall_mshr_misses::total              700                       # number of overall MSHR misses
system.l2.HardPFReq_mshr_miss_latency::l2.prefetcher     16713611                       # number of HardPFReq MSHR miss cycles
system.l2.HardPFReq_mshr_miss_latency::total     16713611                       # number of HardPFReq MSHR miss cycles
system.l2.ReadExReq_mshr_miss_latency::cpu.data     10308000                       # number of ReadExReq MSHR miss cycles
system.l2.ReadExReq_mshr_miss_latency::total     10308000                       # number of ReadExReq MSHR miss cycles
system.l2.ReadCleanReq_mshr_miss_latency::cpu.inst     31153000                       # number of ReadCleanReq MSHR miss cycles
system.l2.ReadCleanReq_mshr_miss_latency::total     31153000                       # number of ReadCleanReq MSHR miss cycles
system.l2.ReadSharedReq_mshr_miss_latency::cpu.data      8277500                       # number of ReadSharedReq MSHR miss cycles
system.l2.ReadSharedReq_mshr_miss_latency::total      8277500                       # number of ReadSharedReq MSHR miss cycles
system.l2.demand_mshr_miss_latency::cpu.inst     31153000                       # number of demand (read+write) MSHR miss cycles
system.l2.demand_mshr_miss_latency::cpu.data     18585500                       # number of demand (read+write) MSHR miss cycles
system.l2.demand_mshr_miss_latency::total     49738500                       # number of demand (read+write) MSHR miss cycles
system.l2.overall_mshr_miss_latency::cpu.inst     31153000                       # number of overall MSHR miss cycles
system.l2.overall_mshr_miss_latency::cpu.data     18585500                       # number of overall MSHR miss cycles
system.l2.overall_mshr_miss_latency::l2.prefetcher     16713611                       # number of overall MSHR miss cycles
system.l2.overall_mshr_miss_latency::total     66452111                       # number of overall MSHR miss cycles
system.l2.HardPFReq_mshr_miss_rate::l2.prefetcher          inf                       # mshr miss rate for HardPFReq accesses
system.l2.HardPFReq_mshr_miss_rate::total          inf                       # mshr miss rate for HardPFReq accesses
system.l2.ReadExReq_mshr_miss_rate::cpu.data     0.597315                       # mshr miss rate for ReadExReq accesses
system.l2.ReadExReq_mshr_miss_rate::total     0.597315                       # mshr miss rate for ReadExReq accesses
system.l2.ReadCleanReq_mshr_miss_rate::cpu.inst     0.975610                       # mshr miss rate for ReadCleanReq accesses
system.l2.ReadCleanReq_mshr_miss_rate::total     0.975610                       # mshr miss rate for ReadCleanReq accesses
system.l2.ReadSharedReq_mshr_miss_rate::cpu.data     0.922330                       # mshr miss rate for ReadSharedReq accesses
system.l2.ReadSharedReq_mshr_miss_rate::total     0.922330                       # mshr miss rate for ReadSharedReq accesses
system.l2.demand_mshr_miss_rate::cpu.inst     0.975610                       # mshr miss rate for demand accesses
system.l2.demand_mshr_miss_rate::cpu.data     0.730159                       # mshr miss rate for demand accesses
system.l2.demand_mshr_miss_rate::total       0.882175                       # mshr miss rate for demand accesses
system.l2.overall_mshr_miss_rate::cpu.inst     0.975610                       # mshr miss rate for overall accesses
system.l2.overall_mshr_miss_rate::cpu.data     0.730159                       # mshr miss rate for overall accesses
system.l2.overall_mshr_miss_rate::l2.prefetcher          inf                       # mshr miss rate for overall accesses
system.l2.overall_mshr_miss_rate::total      1.057402                       # mshr miss rate for overall accesses
system.l2.HardPFReq_avg_mshr_miss_latency::l2.prefetcher 144082.853448                       # average HardPFReq mshr miss latency
system.l2.HardPFReq_avg_mshr_miss_latency::total 144082.853448                       # average HardPFReq mshr miss latency
system.l2.ReadExReq_avg_mshr_miss_latency::cpu.data 115820.224719                       # average ReadExReq mshr miss latency
system.l2.ReadExReq_avg_mshr_miss_latency::total 115820.224719                       # average ReadExReq mshr miss latency
system.l2.ReadCleanReq_avg_mshr_miss_latency::cpu.inst 77882.500000                       # average ReadCleanReq mshr miss latency
system.l2.ReadCleanReq_avg_mshr_miss_latency::total 77882.500000                       # average ReadCleanReq mshr miss latency
system.l2.ReadSharedReq_avg_mshr_miss_latency::cpu.data 87131.578947                       # average ReadSharedReq mshr miss latency
system.l2.ReadSharedReq_avg_mshr_miss_latency::total 87131.578947                       # average ReadSharedReq mshr miss latency
system.l2.demand_avg_mshr_miss_latency::cpu.inst 77882.500000                       # average overall mshr miss latency
system.l2.demand_avg_mshr_miss_latency::cpu.data 101008.152174                       # average overall mshr miss latency
system.l2.demand_avg_mshr_miss_latency::total 85168.664384                       # average overall mshr miss latency
system.l2.overall_avg_mshr_miss_latency::cpu.inst 77882.500000                       # average overall mshr miss latency
system.l2.overall_avg_mshr_miss_latency::cpu.data 101008.152174                       # average overall mshr miss latency
system.l2.overall_avg_mshr_miss_latency::l2.prefetcher 144082.853448                       # average overall mshr miss latency
system.l2.overall_avg_mshr_miss_latency::total 94931.587143                       # average overall mshr miss latency
system.membus.snoop_filter.tot_requests           678                       # Total number of requests made to the snoop filter.
system.membus.snoop_filter.hit_single_requests           14                       # Number of requests hitting in the snoop filter with a single holder of the requested data.
system.membus.snoop_filter.hit_multi_requests            0                       # Number of requests hitting in the snoop filter with multiple (>1) holders of the requested data.
system.membus.snoop_filter.tot_snoops               0                       # Total number of snoops made to the snoop filter.
system.membus.snoop_filter.hit_single_snoops            0                       # Number of snoops hitting in the snoop filter with a single holder of the requested data.
system.membus.snoop_filter.hit_multi_snoops            0                       # Number of snoops hitting in the snoop filter with multiple (>1) holders of the requested data.
system.membus.pwrStateResidencyTicks::UNDEFINED 168528690000                       # Cumulative time (in ticks) in various power states
system.membus.trans_dist::ReadResp                589                       # Transaction distribution
system.membus.trans_dist::ReadExReq                89                       # Transaction distribution
system.membus.trans_dist::ReadExResp               89                       # Transaction distribution
system.membus.trans_dist::ReadSharedReq           589                       # Transaction distribution
system.membus.pkt_count_system.l2.mem_side::system.mem_ctrls.port         1356                       # Packet count per connected master and slave (bytes)
system.membus.pkt_count::total                   1356                       # Packet count per connected master and slave (bytes)
system.membus.pkt_size_system.l2.mem_side::system.mem_ctrls.port        43392                       # Cumulative packet size per connected master and slave (bytes)
system.membus.pkt_size::total                   43392                       # Cumulative packet size per connected master and slave (bytes)
system.membus.snoops                                0                       # Total snoops (count)
system.membus.snoopTraffic                          0                       # Total snoop traffic (bytes)
system.membus.snoop_fanout::samples               678                       # Request fanout histogram
system.membus.snoop_fanout::mean                    0                       # Request fanout histogram
system.membus.snoop_fanout::stdev                   0                       # Request fanout histogram
system.membus.snoop_fanout::underflows              0      0.00%      0.00% # Request fanout histogram
system.membus.snoop_fanout::0                     678    100.00%    100.00% # Request fanout histogram
system.membus.snoop_fanout::1                       0      0.00%    100.00% # Request fanout histogram
system.membus.snoop_fanout::overflows               0      0.00%    100.00% # Request fanout histogram
system.membus.snoop_fanout::min_value               0                       # Request fanout histogram
system.membus.snoop_fanout::max_value               0                       # Request fanout histogram
system.membus.snoop_fanout::total                 678                       # Request fanout histogram
system.membus.reqLayer0.occupancy              848660                       # Layer occupancy (ticks)
system.membus.reqLayer0.utilization               0.0                       # Layer utilization (%)
system.membus.respLayer1.occupancy            3583007                       # Layer occupancy (ticks)
system.membus.respLayer1.utilization              0.0                       # Layer utilization (%)
system.tol2bus.snoop_filter.tot_requests          738                       # Total number of requests made to the snoop filter.
system.tol2bus.snoop_filter.hit_single_requests           88                       # Number of requests hitting in the snoop filter with a single holder of the requested data.
system.tol2bus.snoop_filter.hit_multi_requests            3                       # Number of requests hitting in the snoop filter with multiple (>1) holders of the requested data.
system.tol2bus.snoop_filter.tot_snoops             21                       # Total number of snoops made to the snoop filter.
system.tol2bus.snoop_filter.hit_single_snoops           21                       # Number of snoops hitting in the snoop filter with a single holder of the requested data.
system.tol2bus.snoop_filter.hit_multi_snoops            0                       # Number of snoops hitting in the snoop filter with multiple (>1) holders of the requested data.
system.tol2bus.pwrStateResidencyTicks::UNDEFINED 168528690000                       # Cumulative time (in ticks) in various power states
system.tol2bus.trans_dist::ReadResp               512                       # Transaction distribution
system.tol2bus.trans_dist::WritebackClean           76                       # Transaction distribution
system.tol2bus.trans_dist::HardPFReq              156                       # Transaction distribution
system.tol2bus.trans_dist::ReadExReq              149                       # Transaction distribution
system.tol2bus.trans_dist::ReadExResp             149                       # Transaction distribution
system.tol2bus.trans_dist::ReadCleanReq           410                       # Transaction distribution
system.tol2bus.trans_dist::ReadSharedReq          103                       # Transaction distribution
system.tol2bus.pkt_count_system.cpu.icache.mem_side::system.l2.cpu_side          893                       # Packet count per connected master and slave (bytes)
system.tol2bus.pkt_count_system.cpu.dcache.mem_side::system.l2.cpu_side          506                       # Packet count per connected master and slave (bytes)
system.tol2bus.pkt_count::total                  1399                       # Packet count per connected master and slave (bytes)
system.tol2bus.pkt_size_system.cpu.icache.mem_side::system.l2.cpu_side        30912                       # Cumulative packet size per connected master and slave (bytes)
system.tol2bus.pkt_size_system.cpu.dcache.mem_side::system.l2.cpu_side        16256                       # Cumulative packet size per connected master and slave (bytes)
system.tol2bus.pkt_size::total                  47168                       # Cumulative packet size per connected master and slave (bytes)
system.tol2bus.snoops                             156                       # Total snoops (count)
system.tol2bus.snoopTraffic                         0                       # Total snoop traffic (bytes)
system.tol2bus.snoop_fanout::samples              818                       # Request fanout histogram
system.tol2bus.snoop_fanout::mean            0.044010                       # Request fanout histogram
system.tol2bus.snoop_fanout::stdev           0.205242                       # Request fanout histogram
system.tol2bus.snoop_fanout::underflows             0      0.00%      0.00% # Request fanout histogram
system.tol2bus.snoop_fanout::0                    782     95.60%     95.60% # Request fanout histogram
system.tol2bus.snoop_fanout::1                     36      4.40%    100.00% # Request fanout histogram
system.tol2bus.snoop_fanout::2                      0      0.00%    100.00% # Request fanout histogram
system.tol2bus.snoop_fanout::3                      0      0.00%    100.00% # Request fanout histogram
system.tol2bus.snoop_fanout::4                      0      0.00%    100.00% # Request fanout histogram
system.tol2bus.snoop_fanout::overflows              0      0.00%    100.00% # Request fanout histogram
system.tol2bus.snoop_fanout::min_value              0                       # Request fanout histogram
system.tol2bus.snoop_fanout::max_value              1                       # Request fanout histogram
system.tol2bus.snoop_fanout::total                818                       # Request fanout histogram
system.tol2bus.reqLayer0.occupancy             445000                       # Layer occupancy (ticks)
system.tol2bus.reqLayer0.utilization              0.0                       # Layer utilization (%)
system.tol2bus.respLayer0.occupancy            613500                       # Layer occupancy (ticks)
system.tol2bus.respLayer0.utilization             0.0                       # Layer utilization (%)
system.tol2bus.respLayer1.occupancy            378499                       # Layer occupancy (ticks)
system.tol2bus.respLayer1.utilization             0.0                       # Layer utilization (%)

---------- End Simulation Statistics   ----------
