
---------- Begin Simulation Statistics ----------
sim_seconds                                  0.061260                       # Number of seconds simulated
sim_ticks                                 61259545500                       # Number of ticks simulated
final_tick                                61259545500                       # Number of ticks from beginning of simulation (restored from checkpoints and never reset)
sim_freq                                 1000000000000                       # Frequency of simulated ticks
host_inst_rate                                 387100                       # Simulator instruction rate (inst/s)
host_op_rate                                   441287                       # Simulator op (including micro ops) rate (op/s)
host_tick_rate                              126128563                       # Simulator tick rate (ticks/s)
host_mem_usage                                 678624                       # Number of bytes of host memory used
host_seconds                                   485.69                       # Real time elapsed on the host
sim_insts                                   188011106                       # Number of instructions simulated
sim_ops                                     214329283                       # Number of ops (including micro ops) simulated
system.voltage_domain.voltage                       1                       # Voltage in Volts
system.clk_domain.clock                          1000                       # Clock period in ticks
system.mem_ctrls.pwrStateResidencyTicks::UNDEFINED  61259545500                       # Cumulative time (in ticks) in various power states
system.mem_ctrls.bytes_read::cpu.inst           88448                       # Number of bytes read from this memory
system.mem_ctrls.bytes_read::cpu.data           59008                       # Number of bytes read from this memory
system.mem_ctrls.bytes_read::l2.prefetcher       125632                       # Number of bytes read from this memory
system.mem_ctrls.bytes_read::total             273088                       # Number of bytes read from this memory
system.mem_ctrls.bytes_inst_read::cpu.inst        88448                       # Number of instructions bytes read from this memory
system.mem_ctrls.bytes_inst_read::total         88448                       # Number of instructions bytes read from this memory
system.mem_ctrls.num_reads::cpu.inst             1382                       # Number of read requests responded to by this memory
system.mem_ctrls.num_reads::cpu.data              922                       # Number of read requests responded to by this memory
system.mem_ctrls.num_reads::l2.prefetcher         1963                       # Number of read requests responded to by this memory
system.mem_ctrls.num_reads::total                4267                       # Number of read requests responded to by this memory
system.mem_ctrls.bw_read::cpu.inst            1443824                       # Total read bandwidth from this memory (bytes/s)
system.mem_ctrls.bw_read::cpu.data             963246                       # Total read bandwidth from this memory (bytes/s)
system.mem_ctrls.bw_read::l2.prefetcher       2050815                       # Total read bandwidth from this memory (bytes/s)
system.mem_ctrls.bw_read::total               4457885                       # Total read bandwidth from this memory (bytes/s)
system.mem_ctrls.bw_inst_read::cpu.inst       1443824                       # Instruction read bandwidth from this memory (bytes/s)
system.mem_ctrls.bw_inst_read::total          1443824                       # Instruction read bandwidth from this memory (bytes/s)
system.mem_ctrls.bw_total::cpu.inst           1443824                       # Total bandwidth to/from this memory (bytes/s)
system.mem_ctrls.bw_total::cpu.data            963246                       # Total bandwidth to/from this memory (bytes/s)
system.mem_ctrls.bw_total::l2.prefetcher      2050815                       # Total bandwidth to/from this memory (bytes/s)
system.mem_ctrls.bw_total::total              4457885                       # Total bandwidth to/from this memory (bytes/s)
system.mem_ctrls.readReqs                        4267                       # Number of read requests accepted
system.mem_ctrls.writeReqs                          0                       # Number of write requests accepted
system.mem_ctrls.readBursts                      4267                       # Number of DRAM read bursts, including those serviced by the write queue
system.mem_ctrls.writeBursts                        0                       # Number of DRAM write bursts, including those merged in the write queue
system.mem_ctrls.bytesReadDRAM                 273088                       # Total number of bytes read from DRAM
system.mem_ctrls.bytesReadWrQ                       0                       # Total number of bytes read from write queue
system.mem_ctrls.bytesWritten                       0                       # Total number of bytes written to DRAM
system.mem_ctrls.bytesReadSys                  273088                       # Total read bytes from the system interface side
system.mem_ctrls.bytesWrittenSys                    0                       # Total written bytes from the system interface side
system.mem_ctrls.servicedByWrQ                      0                       # Number of DRAM read bursts serviced by the write queue
system.mem_ctrls.mergedWrBursts                     0                       # Number of DRAM write bursts merged with an existing one
system.mem_ctrls.neitherReadNorWriteReqs            0                       # Number of requests that are neither read nor write
system.mem_ctrls.perBankRdBursts::0               374                       # Per bank write bursts
system.mem_ctrls.perBankRdBursts::1               324                       # Per bank write bursts
system.mem_ctrls.perBankRdBursts::2               281                       # Per bank write bursts
system.mem_ctrls.perBankRdBursts::3               383                       # Per bank write bursts
system.mem_ctrls.perBankRdBursts::4               214                       # Per bank write bursts
system.mem_ctrls.perBankRdBursts::5               265                       # Per bank write bursts
system.mem_ctrls.perBankRdBursts::6               164                       # Per bank write bursts
system.mem_ctrls.perBankRdBursts::7               192                       # Per bank write bursts
system.mem_ctrls.perBankRdBursts::8               247                       # Per bank write bursts
system.mem_ctrls.perBankRdBursts::9               189                       # Per bank write bursts
system.mem_ctrls.perBankRdBursts::10              252                       # Per bank write bursts
system.mem_ctrls.perBankRdBursts::11              283                       # Per bank write bursts
system.mem_ctrls.perBankRdBursts::12              316                       # Per bank write bursts
system.mem_ctrls.perBankRdBursts::13              310                       # Per bank write bursts
system.mem_ctrls.perBankRdBursts::14              219                       # Per bank write bursts
system.mem_ctrls.perBankRdBursts::15              254                       # Per bank write bursts
system.mem_ctrls.perBankWrBursts::0                 0                       # Per bank write bursts
system.mem_ctrls.perBankWrBursts::1                 0                       # Per bank write bursts
system.mem_ctrls.perBankWrBursts::2                 0                       # Per bank write bursts
system.mem_ctrls.perBankWrBursts::3                 0                       # Per bank write bursts
system.mem_ctrls.perBankWrBursts::4                 0                       # Per bank write bursts
system.mem_ctrls.perBankWrBursts::5                 0                       # Per bank write bursts
system.mem_ctrls.perBankWrBursts::6                 0                       # Per bank write bursts
system.mem_ctrls.perBankWrBursts::7                 0                       # Per bank write bursts
system.mem_ctrls.perBankWrBursts::8                 0                       # Per bank write bursts
system.mem_ctrls.perBankWrBursts::9                 0                       # Per bank write bursts
system.mem_ctrls.perBankWrBursts::10                0                       # Per bank write bursts
system.mem_ctrls.perBankWrBursts::11                0                       # Per bank write bursts
system.mem_ctrls.perBankWrBursts::12                0                       # Per bank write bursts
system.mem_ctrls.perBankWrBursts::13                0                       # Per bank write bursts
system.mem_ctrls.perBankWrBursts::14                0                       # Per bank write bursts
system.mem_ctrls.perBankWrBursts::15                0                       # Per bank write bursts
system.mem_ctrls.numRdRetry                         0                       # Number of times read queue was full causing retry
system.mem_ctrls.numWrRetry                         0                       # Number of times write queue was full causing retry
system.mem_ctrls.totGap                   61259439500                       # Total gap between requests
system.mem_ctrls.readPktSize::0                     0                       # Read request sizes (log2)
system.mem_ctrls.readPktSize::1                     0                       # Read request sizes (log2)
system.mem_ctrls.readPktSize::2                     0                       # Read request sizes (log2)
system.mem_ctrls.readPktSize::3                     0                       # Read request sizes (log2)
system.mem_ctrls.readPktSize::4                     0                       # Read request sizes (log2)
system.mem_ctrls.readPktSize::5                     0                       # Read request sizes (log2)
system.mem_ctrls.readPktSize::6                  4267                       # Read request sizes (log2)
system.mem_ctrls.writePktSize::0                    0                       # Write request sizes (log2)
system.mem_ctrls.writePktSize::1                    0                       # Write request sizes (log2)
system.mem_ctrls.writePktSize::2                    0                       # Write request sizes (log2)
system.mem_ctrls.writePktSize::3                    0                       # Write request sizes (log2)
system.mem_ctrls.writePktSize::4                    0                       # Write request sizes (log2)
system.mem_ctrls.writePktSize::5                    0                       # Write request sizes (log2)
system.mem_ctrls.writePktSize::6                    0                       # Write request sizes (log2)
system.mem_ctrls.rdQLenPdf::0                    2685                       # What read queue length does an incoming req see
system.mem_ctrls.rdQLenPdf::1                     641                       # What read queue length does an incoming req see
system.mem_ctrls.rdQLenPdf::2                     207                       # What read queue length does an incoming req see
system.mem_ctrls.rdQLenPdf::3                     104                       # What read queue length does an incoming req see
system.mem_ctrls.rdQLenPdf::4                      72                       # What read queue length does an incoming req see
system.mem_ctrls.rdQLenPdf::5                      59                       # What read queue length does an incoming req see
system.mem_ctrls.rdQLenPdf::6                      70                       # What read queue length does an incoming req see
system.mem_ctrls.rdQLenPdf::7                     155                       # What read queue length does an incoming req see
system.mem_ctrls.rdQLenPdf::8                     136                       # What read queue length does an incoming req see
system.mem_ctrls.rdQLenPdf::9                      43                       # What read queue length does an incoming req see
system.mem_ctrls.rdQLenPdf::10                     32                       # What read queue length does an incoming req see
system.mem_ctrls.rdQLenPdf::11                     24                       # What read queue length does an incoming req see
system.mem_ctrls.rdQLenPdf::12                     20                       # What read queue length does an incoming req see
system.mem_ctrls.rdQLenPdf::13                     18                       # What read queue length does an incoming req see
system.mem_ctrls.rdQLenPdf::14                      1                       # What read queue length does an incoming req see
system.mem_ctrls.rdQLenPdf::15                      0                       # What read queue length does an incoming req see
system.mem_ctrls.rdQLenPdf::16                      0                       # What read queue length does an incoming req see
system.mem_ctrls.rdQLenPdf::17                      0                       # What read queue length does an incoming req see
system.mem_ctrls.rdQLenPdf::18                      0                       # What read queue length does an incoming req see
system.mem_ctrls.rdQLenPdf::19                      0                       # What read queue length does an incoming req see
system.mem_ctrls.rdQLenPdf::20                      0                       # What read queue length does an incoming req see
system.mem_ctrls.rdQLenPdf::21                      0                       # What read queue length does an incoming req see
system.mem_ctrls.rdQLenPdf::22                      0                       # What read queue length does an incoming req see
system.mem_ctrls.rdQLenPdf::23                      0                       # What read queue length does an incoming req see
system.mem_ctrls.rdQLenPdf::24                      0                       # What read queue length does an incoming req see
system.mem_ctrls.rdQLenPdf::25                      0                       # What read queue length does an incoming req see
system.mem_ctrls.rdQLenPdf::26                      0                       # What read queue length does an incoming req see
system.mem_ctrls.rdQLenPdf::27                      0                       # What read queue length does an incoming req see
system.mem_ctrls.rdQLenPdf::28                      0                       # What read queue length does an incoming req see
system.mem_ctrls.rdQLenPdf::29                      0                       # What read queue length does an incoming req see
system.mem_ctrls.rdQLenPdf::30                      0                       # What read queue length does an incoming req see
system.mem_ctrls.rdQLenPdf::31                      0                       # What read queue length does an incoming req see
system.mem_ctrls.wrQLenPdf::0                       0                       # What write queue length does an incoming req see
system.mem_ctrls.wrQLenPdf::1                       0                       # What write queue length does an incoming req see
system.mem_ctrls.wrQLenPdf::2                       0                       # What write queue length does an incoming req see
system.mem_ctrls.wrQLenPdf::3                       0                       # What write queue length does an incoming req see
system.mem_ctrls.wrQLenPdf::4                       0                       # What write queue length does an incoming req see
system.mem_ctrls.wrQLenPdf::5                       0                       # What write queue length does an incoming req see
system.mem_ctrls.wrQLenPdf::6                       0                       # What write queue length does an incoming req see
system.mem_ctrls.wrQLenPdf::7                       0                       # What write queue length does an incoming req see
system.mem_ctrls.wrQLenPdf::8                       0                       # What write queue length does an incoming req see
system.mem_ctrls.wrQLenPdf::9                       0                       # What write queue length does an incoming req see
system.mem_ctrls.wrQLenPdf::10                      0                       # What write queue length does an incoming req see
system.mem_ctrls.wrQLenPdf::11                      0                       # What write queue length does an incoming req see
system.mem_ctrls.wrQLenPdf::12                      0                       # What write queue length does an incoming req see
system.mem_ctrls.wrQLenPdf::13                      0                       # What write queue length does an incoming req see
system.mem_ctrls.wrQLenPdf::14                      0                       # What write queue length does an incoming req see
system.mem_ctrls.wrQLenPdf::15                      0                       # What write queue length does an incoming req see
system.mem_ctrls.wrQLenPdf::16                      0                       # What write queue length does an incoming req see
system.mem_ctrls.wrQLenPdf::17                      0                       # What write queue length does an incoming req see
system.mem_ctrls.wrQLenPdf::18                      0                       # What write queue length does an incoming req see
system.mem_ctrls.wrQLenPdf::19                      0                       # What write queue length does an incoming req see
system.mem_ctrls.wrQLenPdf::20                      0                       # What write queue length does an incoming req see
system.mem_ctrls.wrQLenPdf::21                      0                       # What write queue length does an incoming req see
system.mem_ctrls.wrQLenPdf::22                      0                       # What write queue length does an incoming req see
system.mem_ctrls.wrQLenPdf::23                      0                       # What write queue length does an incoming req see
system.mem_ctrls.wrQLenPdf::24                      0                       # What write queue length does an incoming req see
system.mem_ctrls.wrQLenPdf::25                      0                       # What write queue length does an incoming req see
system.mem_ctrls.wrQLenPdf::26                      0                       # What write queue length does an incoming req see
system.mem_ctrls.wrQLenPdf::27                      0                       # What write queue length does an incoming req see
system.mem_ctrls.wrQLenPdf::28                      0                       # What write queue length does an incoming req see
system.mem_ctrls.wrQLenPdf::29                      0                       # What write queue length does an incoming req see
system.mem_ctrls.wrQLenPdf::30                      0                       # What write queue length does an incoming req see
system.mem_ctrls.wrQLenPdf::31                      0                       # What write queue length does an incoming req see
system.mem_ctrls.wrQLenPdf::32                      0                       # What write queue length does an incoming req see
system.mem_ctrls.wrQLenPdf::33                      0                       # What write queue length does an incoming req see
system.mem_ctrls.wrQLenPdf::34                      0                       # What write queue length does an incoming req see
system.mem_ctrls.wrQLenPdf::35                      0                       # What write queue length does an incoming req see
system.mem_ctrls.wrQLenPdf::36                      0                       # What write queue length does an incoming req see
system.mem_ctrls.wrQLenPdf::37                      0                       # What write queue length does an incoming req see
system.mem_ctrls.wrQLenPdf::38                      0                       # What write queue length does an incoming req see
system.mem_ctrls.wrQLenPdf::39                      0                       # What write queue length does an incoming req see
system.mem_ctrls.wrQLenPdf::40                      0                       # What write queue length does an incoming req see
system.mem_ctrls.wrQLenPdf::41                      0                       # What write queue length does an incoming req see
system.mem_ctrls.wrQLenPdf::42                      0                       # What write queue length does an incoming req see
system.mem_ctrls.wrQLenPdf::43                      0                       # What write queue length does an incoming req see
system.mem_ctrls.wrQLenPdf::44                      0                       # What write queue length does an incoming req see
system.mem_ctrls.wrQLenPdf::45                      0                       # What write queue length does an incoming req see
system.mem_ctrls.wrQLenPdf::46                      0                       # What write queue length does an incoming req see
system.mem_ctrls.wrQLenPdf::47                      0                       # What write queue length does an incoming req see
system.mem_ctrls.wrQLenPdf::48                      0                       # What write queue length does an incoming req see
system.mem_ctrls.wrQLenPdf::49                      0                       # What write queue length does an incoming req see
system.mem_ctrls.wrQLenPdf::50                      0                       # What write queue length does an incoming req see
system.mem_ctrls.wrQLenPdf::51                      0                       # What write queue length does an incoming req see
system.mem_ctrls.wrQLenPdf::52                      0                       # What write queue length does an incoming req see
system.mem_ctrls.wrQLenPdf::53                      0                       # What write queue length does an incoming req see
system.mem_ctrls.wrQLenPdf::54                      0                       # What write queue length does an incoming req see
system.mem_ctrls.wrQLenPdf::55                      0                       # What write queue length does an incoming req see
system.mem_ctrls.wrQLenPdf::56                      0                       # What write queue length does an incoming req see
system.mem_ctrls.wrQLenPdf::57                      0                       # What write queue length does an incoming req see
system.mem_ctrls.wrQLenPdf::58                      0                       # What write queue length does an incoming req see
system.mem_ctrls.wrQLenPdf::59                      0                       # What write queue length does an incoming req see
system.mem_ctrls.wrQLenPdf::60                      0                       # What write queue length does an incoming req see
system.mem_ctrls.wrQLenPdf::61                      0                       # What write queue length does an incoming req see
system.mem_ctrls.wrQLenPdf::62                      0                       # What write queue length does an incoming req see
system.mem_ctrls.wrQLenPdf::63                      0                       # What write queue length does an incoming req see
system.mem_ctrls.bytesPerActivate::samples         1327                       # Bytes accessed per row activation
system.mem_ctrls.bytesPerActivate::mean    203.864356                       # Bytes accessed per row activation
system.mem_ctrls.bytesPerActivate::gmean   132.063864                       # Bytes accessed per row activation
system.mem_ctrls.bytesPerActivate::stdev   245.431291                       # Bytes accessed per row activation
system.mem_ctrls.bytesPerActivate::0-127          572     43.10%     43.10% # Bytes accessed per row activation
system.mem_ctrls.bytesPerActivate::128-255          486     36.62%     79.73% # Bytes accessed per row activation
system.mem_ctrls.bytesPerActivate::256-383           80      6.03%     85.76% # Bytes accessed per row activation
system.mem_ctrls.bytesPerActivate::384-511           37      2.79%     88.55% # Bytes accessed per row activation
system.mem_ctrls.bytesPerActivate::512-639           28      2.11%     90.66% # Bytes accessed per row activation
system.mem_ctrls.bytesPerActivate::640-767           35      2.64%     93.29% # Bytes accessed per row activation
system.mem_ctrls.bytesPerActivate::768-895           14      1.06%     94.35% # Bytes accessed per row activation
system.mem_ctrls.bytesPerActivate::896-1023           11      0.83%     95.18% # Bytes accessed per row activation
system.mem_ctrls.bytesPerActivate::1024-1151           64      4.82%    100.00% # Bytes accessed per row activation
system.mem_ctrls.bytesPerActivate::total         1327                       # Bytes accessed per row activation
system.mem_ctrls.totQLat                    407869858                       # Total ticks spent queuing
system.mem_ctrls.totMemAccLat               487876108                       # Total ticks spent from burst creation until serviced by the DRAM
system.mem_ctrls.totBusLat                   21335000                       # Total ticks spent in databus transfers
system.mem_ctrls.avgQLat                     95587.03                       # Average queueing delay per DRAM burst
system.mem_ctrls.avgBusLat                    5000.00                       # Average bus latency per DRAM burst
system.mem_ctrls.avgMemAccLat               114337.03                       # Average memory access latency per DRAM burst
system.mem_ctrls.avgRdBW                         4.46                       # Average DRAM read bandwidth in MiByte/s
system.mem_ctrls.avgWrBW                         0.00                       # Average achieved write bandwidth in MiByte/s
system.mem_ctrls.avgRdBWSys                      4.46                       # Average system read bandwidth in MiByte/s
system.mem_ctrls.avgWrBWSys                      0.00                       # Average system write bandwidth in MiByte/s
system.mem_ctrls.peakBW                      12800.00                       # Theoretical peak bandwidth in MiByte/s
system.mem_ctrls.busUtil                         0.03                       # Data bus utilization in percentage
system.mem_ctrls.busUtilRead                     0.03                       # Data bus utilization in percentage for reads
system.mem_ctrls.busUtilWrite                    0.00                       # Data bus utilization in percentage for writes
system.mem_ctrls.avgRdQLen                       1.08                       # Average read queue length when enqueuing
system.mem_ctrls.avgWrQLen                       0.00                       # Average write queue length when enqueuing
system.mem_ctrls.readRowHits                     2927                       # Number of row buffer hits during reads
system.mem_ctrls.writeRowHits                       0                       # Number of row buffer hits during writes
system.mem_ctrls.readRowHitRate                 68.60                       # Row buffer hit rate for reads
system.mem_ctrls.writeRowHitRate                  nan                       # Row buffer hit rate for writes
system.mem_ctrls.avgGap                   14356559.53                       # Average gap between requests
system.mem_ctrls.pageHitRate                    68.60                       # Row buffer hit rate, read and write combined
system.mem_ctrls_0.actEnergy                  5319300                       # Energy for activate commands per rank (pJ)
system.mem_ctrls_0.preEnergy                  2808300                       # Energy for precharge commands per rank (pJ)
system.mem_ctrls_0.readEnergy                15686580                       # Energy for read commands per rank (pJ)
system.mem_ctrls_0.writeEnergy                      0                       # Energy for write commands per rank (pJ)
system.mem_ctrls_0.refreshEnergy         481877760.000000                       # Energy for refresh commands per rank (pJ)
system.mem_ctrls_0.actBackEnergy            113567940                       # Energy for active background per rank (pJ)
system.mem_ctrls_0.preBackEnergy             28653600                       # Energy for precharge background per rank (pJ)
system.mem_ctrls_0.actPowerDownEnergy      1111521090                       # Energy for active power-down per rank (pJ)
system.mem_ctrls_0.prePowerDownEnergy       706629120                       # Energy for precharge power-down per rank (pJ)
system.mem_ctrls_0.selfRefreshEnergy      13712821620                       # Energy for self refresh per rank (pJ)
system.mem_ctrls_0.totalEnergy            16178885310                       # Total energy per rank (pJ)
system.mem_ctrls_0.averagePower            264.103904                       # Core power per rank (mW)
system.mem_ctrls_0.totalIdleTime          60935835778                       # Total Idle time Per DRAM Rank
system.mem_ctrls_0.memoryStateTime::IDLE     57133000                       # Time in different power states
system.mem_ctrls_0.memoryStateTime::REF     205088000                       # Time in different power states
system.mem_ctrls_0.memoryStateTime::SREF  56658147000                       # Time in different power states
system.mem_ctrls_0.memoryStateTime::PRE_PDN   1840157005                       # Time in different power states
system.mem_ctrls_0.memoryStateTime::ACT      61430972                       # Time in different power states
system.mem_ctrls_0.memoryStateTime::ACT_PDN   2437589523                       # Time in different power states
system.mem_ctrls_1.actEnergy                  4248300                       # Energy for activate commands per rank (pJ)
system.mem_ctrls_1.preEnergy                  2227665                       # Energy for precharge commands per rank (pJ)
system.mem_ctrls_1.readEnergy                14779800                       # Energy for read commands per rank (pJ)
system.mem_ctrls_1.writeEnergy                      0                       # Energy for write commands per rank (pJ)
system.mem_ctrls_1.refreshEnergy         569156640.000000                       # Energy for refresh commands per rank (pJ)
system.mem_ctrls_1.actBackEnergy            126210540                       # Energy for active background per rank (pJ)
system.mem_ctrls_1.preBackEnergy             35498880                       # Energy for precharge background per rank (pJ)
system.mem_ctrls_1.actPowerDownEnergy      1211399340                       # Energy for active power-down per rank (pJ)
system.mem_ctrls_1.prePowerDownEnergy       868387680                       # Energy for precharge power-down per rank (pJ)
system.mem_ctrls_1.selfRefreshEnergy      13580252640                       # Energy for self refresh per rank (pJ)
system.mem_ctrls_1.totalEnergy            16412161485                       # Total energy per rank (pJ)
system.mem_ctrls_1.averagePower            267.911901                       # Core power per rank (mW)
system.mem_ctrls_1.totalIdleTime          60890292001                       # Total Idle time Per DRAM Rank
system.mem_ctrls_1.memoryStateTime::IDLE     72678000                       # Time in different power states
system.mem_ctrls_1.memoryStateTime::REF     242356000                       # Time in different power states
system.mem_ctrls_1.memoryStateTime::SREF  55972319500                       # Time in different power states
system.mem_ctrls_1.memoryStateTime::PRE_PDN   2261426792                       # Time in different power states
system.mem_ctrls_1.memoryStateTime::ACT      54154249                       # Time in different power states
system.mem_ctrls_1.memoryStateTime::ACT_PDN   2656610959                       # Time in different power states
system.pwrStateResidencyTicks::UNDEFINED  61259545500                       # Cumulative time (in ticks) in various power states
system.cpu.branchPred.lookups                32811745                       # Number of BP lookups
system.cpu.branchPred.condPredicted           6176522                       # Number of conditional branches predicted
system.cpu.branchPred.condIncorrect           1268847                       # Number of conditional branches incorrect
system.cpu.branchPred.BTBLookups             20285548                       # Number of BTB lookups
system.cpu.branchPred.BTBHits                19324766                       # Number of BTB hits
system.cpu.branchPred.BTBCorrect                    0                       # Number of correct BTB predictions (this stat may not work properly.
system.cpu.branchPred.BTBHitPct             95.263712                       # BTB Hit Percentage
system.cpu.branchPred.usedRAS                12387544                       # Number of times the RAS was used to get a target.
system.cpu.branchPred.RASInCorrect                246                       # Number of incorrect RAS predictions.
system.cpu.branchPred.indirectLookups           20312                       # Number of indirect predictor lookups.
system.cpu.branchPred.indirectHits               7813                       # Number of indirect target hits.
system.cpu.branchPred.indirectMisses            12499                       # Number of indirect misses.
system.cpu.branchPredindirectMispredicted          153                       # Number of mispredicted indirect branches.
system.cpu.branchPred.atLeastOneCorrectExpert       575967                       # Number of mispredicts where there was at least one correct not-selected scheme.
system.cpu_voltage_domain.voltage                   1                       # Voltage in Volts
system.cpu_clk_domain.clock                       500                       # Clock period in ticks
system.cpu.dstage2_mmu.stage2_tlb.walker.pwrStateResidencyTicks::UNDEFINED  61259545500                       # Cumulative time (in ticks) in various power states
system.cpu.dstage2_mmu.stage2_tlb.walker.walks            0                       # Table walker walks requested
system.cpu.dstage2_mmu.stage2_tlb.walker.walkRequestOrigin_Requested::Data            0                       # Table walker requests started/completed, data/inst
system.cpu.dstage2_mmu.stage2_tlb.walker.walkRequestOrigin_Requested::Inst            0                       # Table walker requests started/completed, data/inst
system.cpu.dstage2_mmu.stage2_tlb.walker.walkRequestOrigin_Requested::total            0                       # Table walker requests started/completed, data/inst
system.cpu.dstage2_mmu.stage2_tlb.walker.walkRequestOrigin_Completed::Data            0                       # Table walker requests started/completed, data/inst
system.cpu.dstage2_mmu.stage2_tlb.walker.walkRequestOrigin_Completed::Inst            0                       # Table walker requests started/completed, data/inst
system.cpu.dstage2_mmu.stage2_tlb.walker.walkRequestOrigin_Completed::total            0                       # Table walker requests started/completed, data/inst
system.cpu.dstage2_mmu.stage2_tlb.walker.walkRequestOrigin::total            0                       # Table walker requests started/completed, data/inst
system.cpu.dstage2_mmu.stage2_tlb.inst_hits            0                       # ITB inst hits
system.cpu.dstage2_mmu.stage2_tlb.inst_misses            0                       # ITB inst misses
system.cpu.dstage2_mmu.stage2_tlb.read_hits            0                       # DTB read hits
system.cpu.dstage2_mmu.stage2_tlb.read_misses            0                       # DTB read misses
system.cpu.dstage2_mmu.stage2_tlb.write_hits            0                       # DTB write hits
system.cpu.dstage2_mmu.stage2_tlb.write_misses            0                       # DTB write misses
system.cpu.dstage2_mmu.stage2_tlb.flush_tlb            0                       # Number of times complete TLB was flushed
system.cpu.dstage2_mmu.stage2_tlb.flush_tlb_mva            0                       # Number of times TLB was flushed by MVA
system.cpu.dstage2_mmu.stage2_tlb.flush_tlb_mva_asid            0                       # Number of times TLB was flushed by MVA & ASID
system.cpu.dstage2_mmu.stage2_tlb.flush_tlb_asid            0                       # Number of times TLB was flushed by ASID
system.cpu.dstage2_mmu.stage2_tlb.flush_entries            0                       # Number of entries that have been flushed from TLB
system.cpu.dstage2_mmu.stage2_tlb.align_faults            0                       # Number of TLB faults due to alignment restrictions
system.cpu.dstage2_mmu.stage2_tlb.prefetch_faults            0                       # Number of TLB faults due to prefetch
system.cpu.dstage2_mmu.stage2_tlb.domain_faults            0                       # Number of TLB faults due to domain restrictions
system.cpu.dstage2_mmu.stage2_tlb.perms_faults            0                       # Number of TLB faults due to permissions restrictions
system.cpu.dstage2_mmu.stage2_tlb.read_accesses            0                       # DTB read accesses
system.cpu.dstage2_mmu.stage2_tlb.write_accesses            0                       # DTB write accesses
system.cpu.dstage2_mmu.stage2_tlb.inst_accesses            0                       # ITB inst accesses
system.cpu.dstage2_mmu.stage2_tlb.hits              0                       # DTB hits
system.cpu.dstage2_mmu.stage2_tlb.misses            0                       # DTB misses
system.cpu.dstage2_mmu.stage2_tlb.accesses            0                       # DTB accesses
system.cpu.dtb.walker.pwrStateResidencyTicks::UNDEFINED  61259545500                       # Cumulative time (in ticks) in various power states
system.cpu.dtb.walker.walks                         0                       # Table walker walks requested
system.cpu.dtb.walker.walkRequestOrigin_Requested::Data            0                       # Table walker requests started/completed, data/inst
system.cpu.dtb.walker.walkRequestOrigin_Requested::Inst            0                       # Table walker requests started/completed, data/inst
system.cpu.dtb.walker.walkRequestOrigin_Requested::total            0                       # Table walker requests started/completed, data/inst
system.cpu.dtb.walker.walkRequestOrigin_Completed::Data            0                       # Table walker requests started/completed, data/inst
system.cpu.dtb.walker.walkRequestOrigin_Completed::Inst            0                       # Table walker requests started/completed, data/inst
system.cpu.dtb.walker.walkRequestOrigin_Completed::total            0                       # Table walker requests started/completed, data/inst
system.cpu.dtb.walker.walkRequestOrigin::total            0                       # Table walker requests started/completed, data/inst
system.cpu.dtb.inst_hits                            0                       # ITB inst hits
system.cpu.dtb.inst_misses                          0                       # ITB inst misses
system.cpu.dtb.read_hits                            0                       # DTB read hits
system.cpu.dtb.read_misses                          0                       # DTB read misses
system.cpu.dtb.write_hits                           0                       # DTB write hits
system.cpu.dtb.write_misses                         0                       # DTB write misses
system.cpu.dtb.flush_tlb                            0                       # Number of times complete TLB was flushed
system.cpu.dtb.flush_tlb_mva                        0                       # Number of times TLB was flushed by MVA
system.cpu.dtb.flush_tlb_mva_asid                   0                       # Number of times TLB was flushed by MVA & ASID
system.cpu.dtb.flush_tlb_asid                       0                       # Number of times TLB was flushed by ASID
system.cpu.dtb.flush_entries                        0                       # Number of entries that have been flushed from TLB
system.cpu.dtb.align_faults                         0                       # Number of TLB faults due to alignment restrictions
system.cpu.dtb.prefetch_faults                      0                       # Number of TLB faults due to prefetch
system.cpu.dtb.domain_faults                        0                       # Number of TLB faults due to domain restrictions
system.cpu.dtb.perms_faults                         0                       # Number of TLB faults due to permissions restrictions
system.cpu.dtb.read_accesses                        0                       # DTB read accesses
system.cpu.dtb.write_accesses                       0                       # DTB write accesses
system.cpu.dtb.inst_accesses                        0                       # ITB inst accesses
system.cpu.dtb.hits                                 0                       # DTB hits
system.cpu.dtb.misses                               0                       # DTB misses
system.cpu.dtb.accesses                             0                       # DTB accesses
system.cpu.istage2_mmu.stage2_tlb.walker.pwrStateResidencyTicks::UNDEFINED  61259545500                       # Cumulative time (in ticks) in various power states
system.cpu.istage2_mmu.stage2_tlb.walker.walks            0                       # Table walker walks requested
system.cpu.istage2_mmu.stage2_tlb.walker.walkRequestOrigin_Requested::Data            0                       # Table walker requests started/completed, data/inst
system.cpu.istage2_mmu.stage2_tlb.walker.walkRequestOrigin_Requested::Inst            0                       # Table walker requests started/completed, data/inst
system.cpu.istage2_mmu.stage2_tlb.walker.walkRequestOrigin_Requested::total            0                       # Table walker requests started/completed, data/inst
system.cpu.istage2_mmu.stage2_tlb.walker.walkRequestOrigin_Completed::Data            0                       # Table walker requests started/completed, data/inst
system.cpu.istage2_mmu.stage2_tlb.walker.walkRequestOrigin_Completed::Inst            0                       # Table walker requests started/completed, data/inst
system.cpu.istage2_mmu.stage2_tlb.walker.walkRequestOrigin_Completed::total            0                       # Table walker requests started/completed, data/inst
system.cpu.istage2_mmu.stage2_tlb.walker.walkRequestOrigin::total            0                       # Table walker requests started/completed, data/inst
system.cpu.istage2_mmu.stage2_tlb.inst_hits            0                       # ITB inst hits
system.cpu.istage2_mmu.stage2_tlb.inst_misses            0                       # ITB inst misses
system.cpu.istage2_mmu.stage2_tlb.read_hits            0                       # DTB read hits
system.cpu.istage2_mmu.stage2_tlb.read_misses            0                       # DTB read misses
system.cpu.istage2_mmu.stage2_tlb.write_hits            0                       # DTB write hits
system.cpu.istage2_mmu.stage2_tlb.write_misses            0                       # DTB write misses
system.cpu.istage2_mmu.stage2_tlb.flush_tlb            0                       # Number of times complete TLB was flushed
system.cpu.istage2_mmu.stage2_tlb.flush_tlb_mva            0                       # Number of times TLB was flushed by MVA
system.cpu.istage2_mmu.stage2_tlb.flush_tlb_mva_asid            0                       # Number of times TLB was flushed by MVA & ASID
system.cpu.istage2_mmu.stage2_tlb.flush_tlb_asid            0                       # Number of times TLB was flushed by ASID
system.cpu.istage2_mmu.stage2_tlb.flush_entries            0                       # Number of entries that have been flushed from TLB
system.cpu.istage2_mmu.stage2_tlb.align_faults            0                       # Number of TLB faults due to alignment restrictions
system.cpu.istage2_mmu.stage2_tlb.prefetch_faults            0                       # Number of TLB faults due to prefetch
system.cpu.istage2_mmu.stage2_tlb.domain_faults            0                       # Number of TLB faults due to domain restrictions
system.cpu.istage2_mmu.stage2_tlb.perms_faults            0                       # Number of TLB faults due to permissions restrictions
system.cpu.istage2_mmu.stage2_tlb.read_accesses            0                       # DTB read accesses
system.cpu.istage2_mmu.stage2_tlb.write_accesses            0                       # DTB write accesses
system.cpu.istage2_mmu.stage2_tlb.inst_accesses            0                       # ITB inst accesses
system.cpu.istage2_mmu.stage2_tlb.hits              0                       # DTB hits
system.cpu.istage2_mmu.stage2_tlb.misses            0                       # DTB misses
system.cpu.istage2_mmu.stage2_tlb.accesses            0                       # DTB accesses
system.cpu.itb.walker.pwrStateResidencyTicks::UNDEFINED  61259545500                       # Cumulative time (in ticks) in various power states
system.cpu.itb.walker.walks                         0                       # Table walker walks requested
system.cpu.itb.walker.walkRequestOrigin_Requested::Data            0                       # Table walker requests started/completed, data/inst
system.cpu.itb.walker.walkRequestOrigin_Requested::Inst            0                       # Table walker requests started/completed, data/inst
system.cpu.itb.walker.walkRequestOrigin_Requested::total            0                       # Table walker requests started/completed, data/inst
system.cpu.itb.walker.walkRequestOrigin_Completed::Data            0                       # Table walker requests started/completed, data/inst
system.cpu.itb.walker.walkRequestOrigin_Completed::Inst            0                       # Table walker requests started/completed, data/inst
system.cpu.itb.walker.walkRequestOrigin_Completed::total            0                       # Table walker requests started/completed, data/inst
system.cpu.itb.walker.walkRequestOrigin::total            0                       # Table walker requests started/completed, data/inst
system.cpu.itb.inst_hits                            0                       # ITB inst hits
system.cpu.itb.inst_misses                          0                       # ITB inst misses
system.cpu.itb.read_hits                            0                       # DTB read hits
system.cpu.itb.read_misses                          0                       # DTB read misses
system.cpu.itb.write_hits                           0                       # DTB write hits
system.cpu.itb.write_misses                         0                       # DTB write misses
system.cpu.itb.flush_tlb                            0                       # Number of times complete TLB was flushed
system.cpu.itb.flush_tlb_mva                        0                       # Number of times TLB was flushed by MVA
system.cpu.itb.flush_tlb_mva_asid                   0                       # Number of times TLB was flushed by MVA & ASID
system.cpu.itb.flush_tlb_asid                       0                       # Number of times TLB was flushed by ASID
system.cpu.itb.flush_entries                        0                       # Number of entries that have been flushed from TLB
system.cpu.itb.align_faults                         0                       # Number of TLB faults due to alignment restrictions
system.cpu.itb.prefetch_faults                      0                       # Number of TLB faults due to prefetch
system.cpu.itb.domain_faults                        0                       # Number of TLB faults due to domain restrictions
system.cpu.itb.perms_faults                         0                       # Number of TLB faults due to permissions restrictions
system.cpu.itb.read_accesses                        0                       # DTB read accesses
system.cpu.itb.write_accesses                       0                       # DTB write accesses
system.cpu.itb.inst_accesses                        0                       # ITB inst accesses
system.cpu.itb.hits                                 0                       # DTB hits
system.cpu.itb.misses                               0                       # DTB misses
system.cpu.itb.accesses                             0                       # DTB accesses
system.cpu.workload.numSyscalls                    81                       # Number of system calls
system.cpu.pwrStateResidencyTicks::ON     61259545500                       # Cumulative time (in ticks) in various power states
system.cpu.numCycles                        122519092                       # number of cpu cycles simulated
system.cpu.numWorkItemsStarted                      0                       # number of work items this cpu started
system.cpu.numWorkItemsCompleted                    0                       # number of work items this cpu completed
system.cpu.fetch.icacheStallCycles            1190575                       # Number of cycles fetch is stalled on an Icache miss
system.cpu.fetch.Insts                      223044021                       # Number of instructions fetch has processed
system.cpu.fetch.Branches                    32811745                       # Number of branches that fetch encountered
system.cpu.fetch.predictedBranches           31720123                       # Number of branches that fetch has predicted taken
system.cpu.fetch.Cycles                     119907263                       # Number of cycles fetch has run and was not squashing or blocked
system.cpu.fetch.SquashCycles                 2573866                       # Number of cycles fetch has spent squashing
system.cpu.fetch.MiscStallCycles                 1890                       # Number of cycles fetch has spent waiting on interrupts, or bad addresses, or out of MSHRs
system.cpu.fetch.IcacheWaitRetryStallCycles         1473                       # Number of stall cycles due to full MSHR
system.cpu.fetch.CacheLines                  78045783                       # Number of cache lines fetched
system.cpu.fetch.IcacheSquashes                   958                       # Number of outstanding Icache misses that were squashed
system.cpu.fetch.rateDist::samples          122388134                       # Number of instructions fetched each cycle (Total)
system.cpu.fetch.rateDist::mean              2.076124                       # Number of instructions fetched each cycle (Total)
system.cpu.fetch.rateDist::stdev             0.974336                       # Number of instructions fetched each cycle (Total)
system.cpu.fetch.rateDist::underflows               0      0.00%      0.00% # Number of instructions fetched each cycle (Total)
system.cpu.fetch.rateDist::0                  3728034      3.05%      3.05% # Number of instructions fetched each cycle (Total)
system.cpu.fetch.rateDist::1                 42605585     34.81%     37.86% # Number of instructions fetched each cycle (Total)
system.cpu.fetch.rateDist::2                 16676154     13.63%     51.48% # Number of instructions fetched each cycle (Total)
system.cpu.fetch.rateDist::3                 59378361     48.52%    100.00% # Number of instructions fetched each cycle (Total)
system.cpu.fetch.rateDist::overflows                0      0.00%    100.00% # Number of instructions fetched each cycle (Total)
system.cpu.fetch.rateDist::min_value                0                       # Number of instructions fetched each cycle (Total)
system.cpu.fetch.rateDist::max_value                3                       # Number of instructions fetched each cycle (Total)
system.cpu.fetch.rateDist::total            122388134                       # Number of instructions fetched each cycle (Total)
system.cpu.fetch.branchRate                  0.267809                       # Number of branch fetches per cycle
system.cpu.fetch.rate                        1.820484                       # Number of inst fetches per cycle
system.cpu.decode.IdleCycles                  4125295                       # Number of cycles decode is idle
system.cpu.decode.BlockedCycles               5560700                       # Number of cycles decode is blocked
system.cpu.decode.RunCycles                 109270979                       # Number of cycles decode is running
system.cpu.decode.UnblockCycles               2219727                       # Number of cycles decode is unblocking
system.cpu.decode.SquashCycles                1211433                       # Number of cycles decode is squashing
system.cpu.decode.BranchResolved             18999096                       # Number of times decode resolved a branch
system.cpu.decode.BranchMispred                119156                       # Number of times decode detected a branch misprediction
system.cpu.decode.DecodedInsts              244431788                       # Number of instructions handled by decode
system.cpu.decode.SquashedInsts               5057819                       # Number of squashed instructions handled by decode
system.cpu.rename.SquashCycles                1211433                       # Number of cycles rename is squashing
system.cpu.rename.IdleCycles                  8459851                       # Number of cycles rename is idle
system.cpu.rename.BlockCycles                 2368898                       # Number of cycles rename is blocking
system.cpu.rename.serializeStallCycles        1256665                       # count of cycles rename stalled for serializing inst
system.cpu.rename.RunCycles                 107087513                       # Number of cycles rename is running
system.cpu.rename.UnblockCycles               2003774                       # Number of cycles rename is unblocking
system.cpu.rename.RenamedInsts              239936685                       # Number of instructions processed by rename
system.cpu.rename.SquashedInsts               1831932                       # Number of squashed instructions processed by rename
system.cpu.rename.ROBFullEvents                808617                       # Number of times rename has blocked due to ROB full
system.cpu.rename.IQFullEvents                      4                       # Number of times rename has blocked due to IQ full
system.cpu.rename.LQFullEvents                  48368                       # Number of times rename has blocked due to LQ full
system.cpu.rename.SQFullEvents                  27909                       # Number of times rename has blocked due to SQ full
system.cpu.rename.FullRegisterEvents               14                       # Number of times there has been no free registers
system.cpu.rename.RenamedOperands           194251181                       # Number of destination operands rename has renamed
system.cpu.rename.RenameLookups             289265881                       # Number of register rename lookups that rename has made
system.cpu.rename.int_rename_lookups        270653274                       # Number of integer rename lookups
system.cpu.rename.vec_rename_lookups            33981                       # Number of vector rename lookups
system.cpu.rename.CommittedMaps             176286640                       # Number of HB maps that are committed
system.cpu.rename.UndoneMaps                 17964541                       # Number of HB maps that are undone due to squashing
system.cpu.rename.serializingInsts              72882                       # count of serializing insts renamed
system.cpu.rename.tempSerializingInsts          58511                       # count of temporary serializing insts renamed
system.cpu.rename.skidInsts                   3789824                       # count of insts added to the skid buffer
system.cpu.memDep0.insertedLoads             53639220                       # Number of loads inserted to the mem dependence unit.
system.cpu.memDep0.insertedStores            49379416                       # Number of stores inserted to the mem dependence unit.
system.cpu.memDep0.conflictingLoads          19754860                       # Number of conflicting loads.
system.cpu.memDep0.conflictingStores          4247505                       # Number of conflicting stores.
system.cpu.iq.iqInstsAdded                  234463284                       # Number of instructions added to the IQ (excludes non-spec)
system.cpu.iq.iqNonSpecInstsAdded               58508                       # Number of non-speculative instructions added to the IQ
system.cpu.iq.iqInstsIssued                 228750930                       # Number of instructions issued
system.cpu.iq.iqSquashedInstsIssued           1017425                       # Number of squashed instructions issued
system.cpu.iq.iqSquashedInstsExamined        20192508                       # Number of squashed instructions iterated over during squash; mainly for profiling
system.cpu.iq.iqSquashedOperandsExamined     11276342                       # Number of squashed operands that are examined and possibly removed from graph
system.cpu.iq.iqSquashedNonSpecRemoved           7673                       # Number of squashed non-spec instructions that were removed
system.cpu.iq.issued_per_cycle::samples     122388134                       # Number of insts issued each cycle
system.cpu.iq.issued_per_cycle::mean         1.869061                       # Number of insts issued each cycle
system.cpu.iq.issued_per_cycle::stdev        1.055844                       # Number of insts issued each cycle
system.cpu.iq.issued_per_cycle::underflows            0      0.00%      0.00% # Number of insts issued each cycle
system.cpu.iq.issued_per_cycle::0            15393500     12.58%     12.58% # Number of insts issued each cycle
system.cpu.iq.issued_per_cycle::1            26028786     21.27%     33.85% # Number of insts issued each cycle
system.cpu.iq.issued_per_cycle::2            45240800     36.97%     70.81% # Number of insts issued each cycle
system.cpu.iq.issued_per_cycle::3            30666343     25.06%     95.87% # Number of insts issued each cycle
system.cpu.iq.issued_per_cycle::4             5052010      4.13%     99.99% # Number of insts issued each cycle
system.cpu.iq.issued_per_cycle::5                6695      0.01%    100.00% # Number of insts issued each cycle
system.cpu.iq.issued_per_cycle::6                   0      0.00%    100.00% # Number of insts issued each cycle
system.cpu.iq.issued_per_cycle::7                   0      0.00%    100.00% # Number of insts issued each cycle
system.cpu.iq.issued_per_cycle::8                   0      0.00%    100.00% # Number of insts issued each cycle
system.cpu.iq.issued_per_cycle::overflows            0      0.00%    100.00% # Number of insts issued each cycle
system.cpu.iq.issued_per_cycle::min_value            0                       # Number of insts issued each cycle
system.cpu.iq.issued_per_cycle::max_value            5                       # Number of insts issued each cycle
system.cpu.iq.issued_per_cycle::total       122388134                       # Number of insts issued each cycle
system.cpu.iq.fu_full::No_OpClass                   0      0.00%      0.00% # attempts to use FU when none available
system.cpu.iq.fu_full::IntAlu                16796809     31.98%     31.98% # attempts to use FU when none available
system.cpu.iq.fu_full::IntMult                     54      0.00%     31.98% # attempts to use FU when none available
system.cpu.iq.fu_full::IntDiv                       2      0.00%     31.98% # attempts to use FU when none available
system.cpu.iq.fu_full::FloatAdd                     0      0.00%     31.98% # attempts to use FU when none available
system.cpu.iq.fu_full::FloatCmp                     0      0.00%     31.98% # attempts to use FU when none available
system.cpu.iq.fu_full::FloatCvt                     0      0.00%     31.98% # attempts to use FU when none available
system.cpu.iq.fu_full::FloatMult                    0      0.00%     31.98% # attempts to use FU when none available
system.cpu.iq.fu_full::FloatMultAcc                 0      0.00%     31.98% # attempts to use FU when none available
system.cpu.iq.fu_full::FloatDiv                     0      0.00%     31.98% # attempts to use FU when none available
system.cpu.iq.fu_full::FloatMisc                    0      0.00%     31.98% # attempts to use FU when none available
system.cpu.iq.fu_full::FloatSqrt                    0      0.00%     31.98% # attempts to use FU when none available
system.cpu.iq.fu_full::SimdAdd                      0      0.00%     31.98% # attempts to use FU when none available
system.cpu.iq.fu_full::SimdAddAcc                   0      0.00%     31.98% # attempts to use FU when none available
system.cpu.iq.fu_full::SimdAlu                      1      0.00%     31.98% # attempts to use FU when none available
system.cpu.iq.fu_full::SimdCmp                      4      0.00%     31.98% # attempts to use FU when none available
system.cpu.iq.fu_full::SimdCvt                      0      0.00%     31.98% # attempts to use FU when none available
system.cpu.iq.fu_full::SimdMisc                     0      0.00%     31.98% # attempts to use FU when none available
system.cpu.iq.fu_full::SimdMult                     0      0.00%     31.98% # attempts to use FU when none available
system.cpu.iq.fu_full::SimdMultAcc                  0      0.00%     31.98% # attempts to use FU when none available
system.cpu.iq.fu_full::SimdShift                    0      0.00%     31.98% # attempts to use FU when none available
system.cpu.iq.fu_full::SimdShiftAcc                 0      0.00%     31.98% # attempts to use FU when none available
system.cpu.iq.fu_full::SimdSqrt                     0      0.00%     31.98% # attempts to use FU when none available
system.cpu.iq.fu_full::SimdFloatAdd                 0      0.00%     31.98% # attempts to use FU when none available
system.cpu.iq.fu_full::SimdFloatAlu                 0      0.00%     31.98% # attempts to use FU when none available
system.cpu.iq.fu_full::SimdFloatCmp                 0      0.00%     31.98% # attempts to use FU when none available
system.cpu.iq.fu_full::SimdFloatCvt                 0      0.00%     31.98% # attempts to use FU when none available
system.cpu.iq.fu_full::SimdFloatDiv                 0      0.00%     31.98% # attempts to use FU when none available
system.cpu.iq.fu_full::SimdFloatMisc                0      0.00%     31.98% # attempts to use FU when none available
system.cpu.iq.fu_full::SimdFloatMult                0      0.00%     31.98% # attempts to use FU when none available
system.cpu.iq.fu_full::SimdFloatMultAcc             0      0.00%     31.98% # attempts to use FU when none available
system.cpu.iq.fu_full::SimdFloatSqrt                0      0.00%     31.98% # attempts to use FU when none available
system.cpu.iq.fu_full::MemRead               16016310     30.50%     62.48% # attempts to use FU when none available
system.cpu.iq.fu_full::MemWrite              19705046     37.52%    100.00% # attempts to use FU when none available
system.cpu.iq.fu_full::FloatMemRead                 0      0.00%    100.00% # attempts to use FU when none available
system.cpu.iq.fu_full::FloatMemWrite                0      0.00%    100.00% # attempts to use FU when none available
system.cpu.iq.fu_full::IprAccess                    0      0.00%    100.00% # attempts to use FU when none available
system.cpu.iq.fu_full::InstPrefetch                 0      0.00%    100.00% # attempts to use FU when none available
system.cpu.iq.FU_type_0::No_OpClass                 5      0.00%      0.00% # Type of FU issued
system.cpu.iq.FU_type_0::IntAlu             129376729     56.56%     56.56% # Type of FU issued
system.cpu.iq.FU_type_0::IntMult                20193      0.01%     56.57% # Type of FU issued
system.cpu.iq.FU_type_0::IntDiv                    17      0.00%     56.57% # Type of FU issued
system.cpu.iq.FU_type_0::FloatAdd                   0      0.00%     56.57% # Type of FU issued
system.cpu.iq.FU_type_0::FloatCmp                8139      0.00%     56.57% # Type of FU issued
system.cpu.iq.FU_type_0::FloatCvt               16276      0.01%     56.58% # Type of FU issued
system.cpu.iq.FU_type_0::FloatMult                  0      0.00%     56.58% # Type of FU issued
system.cpu.iq.FU_type_0::FloatMultAcc               0      0.00%     56.58% # Type of FU issued
system.cpu.iq.FU_type_0::FloatDiv                   0      0.00%     56.58% # Type of FU issued
system.cpu.iq.FU_type_0::FloatMisc               8143      0.00%     56.58% # Type of FU issued
system.cpu.iq.FU_type_0::FloatSqrt               8137      0.00%     56.58% # Type of FU issued
system.cpu.iq.FU_type_0::SimdAdd                   15      0.00%     56.58% # Type of FU issued
system.cpu.iq.FU_type_0::SimdAddAcc                 0      0.00%     56.58% # Type of FU issued
system.cpu.iq.FU_type_0::SimdAlu                   16      0.00%     56.58% # Type of FU issued
system.cpu.iq.FU_type_0::SimdCmp                   20      0.00%     56.58% # Type of FU issued
system.cpu.iq.FU_type_0::SimdCvt                    0      0.00%     56.58% # Type of FU issued
system.cpu.iq.FU_type_0::SimdMisc                  13      0.00%     56.58% # Type of FU issued
system.cpu.iq.FU_type_0::SimdMult                   0      0.00%     56.58% # Type of FU issued
system.cpu.iq.FU_type_0::SimdMultAcc                0      0.00%     56.58% # Type of FU issued
system.cpu.iq.FU_type_0::SimdShift                  0      0.00%     56.58% # Type of FU issued
system.cpu.iq.FU_type_0::SimdShiftAcc               0      0.00%     56.58% # Type of FU issued
system.cpu.iq.FU_type_0::SimdSqrt                   0      0.00%     56.58% # Type of FU issued
system.cpu.iq.FU_type_0::SimdFloatAdd               0      0.00%     56.58% # Type of FU issued
system.cpu.iq.FU_type_0::SimdFloatAlu               0      0.00%     56.58% # Type of FU issued
system.cpu.iq.FU_type_0::SimdFloatCmp               0      0.00%     56.58% # Type of FU issued
system.cpu.iq.FU_type_0::SimdFloatCvt               0      0.00%     56.58% # Type of FU issued
system.cpu.iq.FU_type_0::SimdFloatDiv               0      0.00%     56.58% # Type of FU issued
system.cpu.iq.FU_type_0::SimdFloatMisc              0      0.00%     56.58% # Type of FU issued
system.cpu.iq.FU_type_0::SimdFloatMult              0      0.00%     56.58% # Type of FU issued
system.cpu.iq.FU_type_0::SimdFloatMultAcc            0      0.00%     56.58% # Type of FU issued
system.cpu.iq.FU_type_0::SimdFloatSqrt              0      0.00%     56.58% # Type of FU issued
system.cpu.iq.FU_type_0::MemRead             52293776     22.86%     79.45% # Type of FU issued
system.cpu.iq.FU_type_0::MemWrite            47019451     20.55%    100.00% # Type of FU issued
system.cpu.iq.FU_type_0::FloatMemRead               0      0.00%    100.00% # Type of FU issued
system.cpu.iq.FU_type_0::FloatMemWrite              0      0.00%    100.00% # Type of FU issued
system.cpu.iq.FU_type_0::IprAccess                  0      0.00%    100.00% # Type of FU issued
system.cpu.iq.FU_type_0::InstPrefetch               0      0.00%    100.00% # Type of FU issued
system.cpu.iq.FU_type_0::total              228750930                       # Type of FU issued
system.cpu.iq.rate                           1.867064                       # Inst issue rate
system.cpu.iq.fu_busy_cnt                    52518226                       # FU busy when requested
system.cpu.iq.fu_busy_rate                   0.229587                       # FU busy rate (busy events/executed inst)
system.cpu.iq.int_inst_queue_reads          633343999                       # Number of integer instruction queue reads
system.cpu.iq.int_inst_queue_writes         254690298                       # Number of integer instruction queue writes
system.cpu.iq.int_inst_queue_wakeup_accesses    224936752                       # Number of integer instruction queue wakeup accesses
system.cpu.iq.fp_inst_queue_reads                   0                       # Number of floating instruction queue reads
system.cpu.iq.fp_inst_queue_writes                  0                       # Number of floating instruction queue writes
system.cpu.iq.fp_inst_queue_wakeup_accesses            0                       # Number of floating instruction queue wakeup accesses
system.cpu.iq.int_alu_accesses              281228317                       # Number of integer alu accesses
system.cpu.iq.fp_alu_accesses                       0                       # Number of floating point alu accesses
system.cpu.iew.lsq.thread0.forwLoads         23460270                       # Number of loads that had data forwarded from stores
system.cpu.iew.lsq.thread0.invAddrLoads             0                       # Number of loads ignored due to an invalid address
system.cpu.iew.lsq.thread0.squashedLoads      3725075                       # Number of loads squashed
system.cpu.iew.lsq.thread0.ignoredResponses         2102                       # Number of memory responses ignored because the instruction is squashed
system.cpu.iew.lsq.thread0.memOrderViolation        19879                       # Number of memory ordering violations
system.cpu.iew.lsq.thread0.squashedStores      4890547                       # Number of stores squashed
system.cpu.iew.lsq.thread0.invAddrSwpfs             0                       # Number of software prefetches ignored due to an invalid address
system.cpu.iew.lsq.thread0.blockedLoads             0                       # Number of blocked loads due to partial load-store forwarding
system.cpu.iew.lsq.thread0.rescheduledLoads       165006                       # Number of loads that were rescheduled
system.cpu.iew.lsq.thread0.cacheBlocked           482                       # Number of times an access to memory failed due to the cache being blocked
system.cpu.iew.iewIdleCycles                        0                       # Number of cycles IEW is idle
system.cpu.iew.iewSquashCycles                1211433                       # Number of cycles IEW is squashing
system.cpu.iew.iewBlockCycles                 1714194                       # Number of cycles IEW is blocking
system.cpu.iew.iewUnblockCycles                    98                       # Number of cycles IEW is unblocking
system.cpu.iew.iewDispatchedInsts           237992252                       # Number of instructions dispatched to IQ
system.cpu.iew.iewDispSquashedInsts                 0                       # Number of squashed instructions skipped by dispatch
system.cpu.iew.iewDispLoadInsts              53639220                       # Number of dispatched load instructions
system.cpu.iew.iewDispStoreInsts             49379416                       # Number of dispatched store instructions
system.cpu.iew.iewDispNonSpecInsts              58500                       # Number of dispatched non-speculative instructions
system.cpu.iew.iewIQFullEvents                      4                       # Number of times the IQ has become full, causing a stall
system.cpu.iew.iewLSQFullEvents                    94                       # Number of times the LSQ has become full, causing a stall
system.cpu.iew.memOrderViolationEvents          19879                       # Number of memory order violations
system.cpu.iew.predictedTakenIncorrect        1127752                       # Number of branches that were predicted taken incorrectly
system.cpu.iew.predictedNotTakenIncorrect        76467                       # Number of branches that were predicted not taken incorrectly
system.cpu.iew.branchMispredicts              1204219                       # Number of branch mispredicts detected at execute
system.cpu.iew.iewExecutedInsts             225346239                       # Number of executed instructions
system.cpu.iew.iewExecLoadInsts              51828868                       # Number of load instructions executed
system.cpu.iew.iewExecSquashedInsts           3404691                       # Number of squashed instructions skipped in execute
system.cpu.iew.exec_swp                             0                       # number of swp insts executed
system.cpu.iew.exec_nop                       3470460                       # number of nop insts executed
system.cpu.iew.exec_refs                     97851190                       # number of memory reference insts executed
system.cpu.iew.exec_branches                 30154659                       # Number of branches executed
system.cpu.iew.exec_stores                   46022322                       # Number of stores executed
system.cpu.iew.exec_rate                     1.839274                       # Inst execution rate
system.cpu.iew.wb_sent                      225064622                       # cumulative count of insts sent to commit
system.cpu.iew.wb_count                     224977556                       # cumulative count of insts written-back
system.cpu.iew.wb_producers                 128380846                       # num instructions producing a value
system.cpu.iew.wb_consumers                 192183976                       # num instructions consuming a value
system.cpu.iew.wb_rate                       1.836265                       # insts written-back per cycle
system.cpu.iew.wb_fanout                     0.668010                       # average fanout of values written-back
system.cpu.commit.commitSquashedInsts        17659266                       # The number of squashed insts skipped by commit
system.cpu.commit.commitNonSpecStalls           50835                       # The number of times commit has been forced to stall to communicate backwards
system.cpu.commit.branchMispredicts           1193347                       # The number of times a branch was mispredicted
system.cpu.commit.committed_per_cycle::samples    119462943                       # Number of insts commited each cycle
system.cpu.commit.committed_per_cycle::mean     1.821933                       # Number of insts commited each cycle
system.cpu.commit.committed_per_cycle::stdev     2.485979                       # Number of insts commited each cycle
system.cpu.commit.committed_per_cycle::underflows            0      0.00%      0.00% # Number of insts commited each cycle
system.cpu.commit.committed_per_cycle::0     54230328     45.40%     45.40% # Number of insts commited each cycle
system.cpu.commit.committed_per_cycle::1     23664021     19.81%     65.20% # Number of insts commited each cycle
system.cpu.commit.committed_per_cycle::2      6891379      5.77%     70.97% # Number of insts commited each cycle
system.cpu.commit.committed_per_cycle::3     11649761      9.75%     80.72% # Number of insts commited each cycle
system.cpu.commit.committed_per_cycle::4      4919209      4.12%     84.84% # Number of insts commited each cycle
system.cpu.commit.committed_per_cycle::5      4171425      3.49%     88.33% # Number of insts commited each cycle
system.cpu.commit.committed_per_cycle::6      2690673      2.25%     90.59% # Number of insts commited each cycle
system.cpu.commit.committed_per_cycle::7      1389727      1.16%     91.75% # Number of insts commited each cycle
system.cpu.commit.committed_per_cycle::8      9856420      8.25%    100.00% # Number of insts commited each cycle
system.cpu.commit.committed_per_cycle::overflows            0      0.00%    100.00% # Number of insts commited each cycle
system.cpu.commit.committed_per_cycle::min_value            0                       # Number of insts commited each cycle
system.cpu.commit.committed_per_cycle::max_value            8                       # Number of insts commited each cycle
system.cpu.commit.committed_per_cycle::total    119462943                       # Number of insts commited each cycle
system.cpu.commit.committedInsts            191335333                       # Number of instructions committed
system.cpu.commit.committedOps              217653510                       # Number of ops (including micro ops) committed
system.cpu.commit.swp_count                         0                       # Number of s/w prefetches committed
system.cpu.commit.refs                       94403014                       # Number of memory references committed
system.cpu.commit.loads                      49914145                       # Number of loads committed
system.cpu.commit.membars                       50753                       # Number of memory barriers committed
system.cpu.commit.branches                   28378888                       # Number of branches committed
system.cpu.commit.vec_insts                     40798                       # Number of committed Vector instructions.
system.cpu.commit.fp_insts                          0                       # Number of committed floating point instructions.
system.cpu.commit.int_insts                 208799869                       # Number of committed integer instructions.
system.cpu.commit.function_calls             11292698                       # Number of function calls committed.
system.cpu.commit.op_class_0::No_OpClass            4      0.00%      0.00% # Class of committed instruction
system.cpu.commit.op_class_0::IntAlu        123189584     56.60%     56.60% # Class of committed instruction
system.cpu.commit.op_class_0::IntMult           20143      0.01%     56.61% # Class of committed instruction
system.cpu.commit.op_class_0::IntDiv               11      0.00%     56.61% # Class of committed instruction
system.cpu.commit.op_class_0::FloatAdd              0      0.00%     56.61% # Class of committed instruction
system.cpu.commit.op_class_0::FloatCmp           8139      0.00%     56.61% # Class of committed instruction
system.cpu.commit.op_class_0::FloatCvt          16275      0.01%     56.62% # Class of committed instruction
system.cpu.commit.op_class_0::FloatMult             0      0.00%     56.62% # Class of committed instruction
system.cpu.commit.op_class_0::FloatMultAcc            0      0.00%     56.62% # Class of committed instruction
system.cpu.commit.op_class_0::FloatDiv              0      0.00%     56.62% # Class of committed instruction
system.cpu.commit.op_class_0::FloatMisc          8143      0.00%     56.62% # Class of committed instruction
system.cpu.commit.op_class_0::FloatSqrt          8137      0.00%     56.63% # Class of committed instruction
system.cpu.commit.op_class_0::SimdAdd              15      0.00%     56.63% # Class of committed instruction
system.cpu.commit.op_class_0::SimdAddAcc            0      0.00%     56.63% # Class of committed instruction
system.cpu.commit.op_class_0::SimdAlu              16      0.00%     56.63% # Class of committed instruction
system.cpu.commit.op_class_0::SimdCmp              16      0.00%     56.63% # Class of committed instruction
system.cpu.commit.op_class_0::SimdCvt               0      0.00%     56.63% # Class of committed instruction
system.cpu.commit.op_class_0::SimdMisc             13      0.00%     56.63% # Class of committed instruction
system.cpu.commit.op_class_0::SimdMult              0      0.00%     56.63% # Class of committed instruction
system.cpu.commit.op_class_0::SimdMultAcc            0      0.00%     56.63% # Class of committed instruction
system.cpu.commit.op_class_0::SimdShift             0      0.00%     56.63% # Class of committed instruction
system.cpu.commit.op_class_0::SimdShiftAcc            0      0.00%     56.63% # Class of committed instruction
system.cpu.commit.op_class_0::SimdSqrt              0      0.00%     56.63% # Class of committed instruction
system.cpu.commit.op_class_0::SimdFloatAdd            0      0.00%     56.63% # Class of committed instruction
system.cpu.commit.op_class_0::SimdFloatAlu            0      0.00%     56.63% # Class of committed instruction
system.cpu.commit.op_class_0::SimdFloatCmp            0      0.00%     56.63% # Class of committed instruction
system.cpu.commit.op_class_0::SimdFloatCvt            0      0.00%     56.63% # Class of committed instruction
system.cpu.commit.op_class_0::SimdFloatDiv            0      0.00%     56.63% # Class of committed instruction
system.cpu.commit.op_class_0::SimdFloatMisc            0      0.00%     56.63% # Class of committed instruction
system.cpu.commit.op_class_0::SimdFloatMult            0      0.00%     56.63% # Class of committed instruction
system.cpu.commit.op_class_0::SimdFloatMultAcc            0      0.00%     56.63% # Class of committed instruction
[...]
system.l2.ReadCleanReq_avg_miss_latency::total 82852.494577                       # average ReadCleanReq miss latency
system.l2.ReadSharedReq_avg_miss_latency::cpu.data 88722.891566                       # average ReadSharedReq miss latency
system.l2.ReadSharedReq_avg_miss_latency::total 88722.891566                       # average ReadSharedReq miss latency
system.l2.demand_avg_miss_latency::cpu.inst 82852.494577                       # average overall miss latency
system.l2.demand_avg_miss_latency::cpu.data 131921.953676                       # average overall miss latency
system.l2.demand_avg_miss_latency::total 103360.058923                       # average overall miss latency
system.l2.overall_avg_miss_latency::cpu.inst 82852.494577                       # average overall miss latency
system.l2.overall_avg_miss_latency::cpu.data 131921.953676                       # average overall miss latency
system.l2.overall_avg_miss_latency::total 103360.058923                       # average overall miss latency
system.l2.blocked_cycles::no_mshrs                338                       # number of cycles access was blocked
system.l2.blocked_cycles::no_targets                0                       # number of cycles access was blocked
system.l2.blocked::no_mshrs                        17                       # number of cycles access was blocked
system.l2.blocked::no_targets                       0                       # number of cycles access was blocked
system.l2.avg_blocked_cycles::no_mshrs      19.882353                       # average number of cycles each access was blocked
system.l2.avg_blocked_cycles::no_targets          nan                       # average number of cycles each access was blocked
system.l2.ReadExReq_mshr_hits::cpu.data            65                       # number of ReadExReq MSHR hits
system.l2.ReadExReq_mshr_hits::total               65                       # number of ReadExReq MSHR hits
system.l2.ReadSharedReq_mshr_hits::cpu.data            6                       # number of ReadSharedReq MSHR hits
system.l2.ReadSharedReq_mshr_hits::total            6                       # number of ReadSharedReq MSHR hits
system.l2.demand_mshr_hits::cpu.data               71                       # number of demand (read+write) MSHR hits
system.l2.demand_mshr_hits::total                  71                       # number of demand (read+write) MSHR hits
system.l2.overall_mshr_hits::cpu.data              71                       # number of overall MSHR hits
system.l2.overall_mshr_hits::total                 71                       # number of overall MSHR hits
system.l2.HardPFReq_mshr_misses::l2.prefetcher         2198                       # number of HardPFReq MSHR misses
system.l2.HardPFReq_mshr_misses::total           2198                       # number of HardPFReq MSHR misses
system.l2.ReadExReq_mshr_misses::cpu.data          679                       # number of ReadExReq MSHR misses
system.l2.ReadExReq_mshr_misses::total            679                       # number of ReadExReq MSHR misses
system.l2.ReadCleanReq_mshr_misses::cpu.inst         1383                       # number of ReadCleanReq MSHR misses
system.l2.ReadCleanReq_mshr_misses::total         1383                       # number of ReadCleanReq MSHR misses
system.l2.ReadSharedReq_mshr_misses::cpu.data          243                       # number of ReadSharedReq MSHR misses
system.l2.ReadSharedReq_mshr_misses::total          243                       # number of ReadSharedReq MSHR misses
system.l2.InvalidateReq_mshr_misses::cpu.data            4                       # number of InvalidateReq MSHR misses
system.l2.InvalidateReq_mshr_misses::total            4                       # number of InvalidateReq MSHR misses
system.l2.demand_mshr_misses::cpu.inst           1383                       # number of demand (read+write) MSHR misses
system.l2.demand_mshr_misses::cpu.data            922                       # number of demand (read+write) MSHR misses
system.l2.demand_mshr_misses::total              2305                       # number of demand (read+write) MSHR misses
system.l2.overall_mshr_misses::cpu.inst          1383                       # number of overall MSHR misses
system.l2.overall_mshr_misses::cpu.data           922                       # number of overall MSHR misses
system.l2.overall_mshr_misses::l2.prefetcher         2198                       # number of overall MSHR misses
system.l2.overall_mshr_misses::total             4503                       # number of overall MSHR misses
system.l2.HardPFReq_mshr_miss_latency::l2.prefetcher    406227476                       # number of HardPFReq MSHR miss cycles
system.l2.HardPFReq_mshr_miss_latency::total    406227476                       # number of HardPFReq MSHR miss cycles
system.l2.ReadExReq_mshr_miss_latency::cpu.data    102267000                       # number of ReadExReq MSHR miss cycles
system.l2.ReadExReq_mshr_miss_latency::total    102267000                       # number of ReadExReq MSHR miss cycles
system.l2.ReadCleanReq_mshr_miss_latency::cpu.inst    106293000                       # number of ReadCleanReq MSHR miss cycles
system.l2.ReadCleanReq_mshr_miss_latency::total    106293000                       # number of ReadCleanReq MSHR miss cycles
system.l2.ReadSharedReq_mshr_miss_latency::cpu.data     20247500                       # number of ReadSharedReq MSHR miss cycles
system.l2.ReadSharedReq_mshr_miss_latency::total     20247500                       # number of ReadSharedReq MSHR miss cycles
system.l2.InvalidateReq_mshr_miss_latency::cpu.data        60000                       # number of InvalidateReq MSHR miss cycles
system.l2.InvalidateReq_mshr_miss_latency::total        60000                       # number of InvalidateReq MSHR miss cycles
system.l2.demand_mshr_miss_latency::cpu.inst    106293000                       # number of demand (read+write) MSHR miss cycles
system.l2.demand_mshr_miss_latency::cpu.data    122514500                       # number of demand (read+write) MSHR miss cycles
system.l2.demand_mshr_miss_latency::total    228807500                       # number of demand (read+write) MSHR miss cycles
system.l2.overall_mshr_miss_latency::cpu.inst    106293000                       # number of overall MSHR miss cycles
system.l2.overall_mshr_miss_latency::cpu.data    122514500                       # number of overall MSHR miss cycles
system.l2.overall_mshr_miss_latency::l2.prefetcher    406227476                       # number of overall MSHR miss cycles
system.l2.overall_mshr_miss_latency::total    635034976                       # number of overall MSHR miss cycles
system.l2.HardPFReq_mshr_miss_rate::l2.prefetcher          inf                       # mshr miss rate for HardPFReq accesses
system.l2.HardPFReq_mshr_miss_rate::total          inf                       # mshr miss rate for HardPFReq accesses
system.l2.ReadExReq_mshr_miss_rate::cpu.data     0.236256                       # mshr miss rate for ReadExReq accesses
system.l2.ReadExReq_mshr_miss_rate::total     0.236256                       # mshr miss rate for ReadExReq accesses
system.l2.ReadCleanReq_mshr_miss_rate::cpu.inst     0.767907                       # mshr miss rate for ReadCleanReq accesses
system.l2.ReadCleanReq_mshr_miss_rate::total     0.767907                       # mshr miss rate for ReadCleanReq accesses
system.l2.ReadSharedReq_mshr_miss_rate::cpu.data     0.210938                       # mshr miss rate for ReadSharedReq accesses
system.l2.ReadSharedReq_mshr_miss_rate::total     0.210938                       # mshr miss rate for ReadSharedReq accesses
system.l2.InvalidateReq_mshr_miss_rate::cpu.data            1                       # mshr miss rate for InvalidateReq accesses
system.l2.InvalidateReq_mshr_miss_rate::total            1                       # mshr miss rate for InvalidateReq accesses
system.l2.demand_mshr_miss_rate::cpu.inst     0.767907                       # mshr miss rate for demand accesses
system.l2.demand_mshr_miss_rate::cpu.data     0.229011                       # mshr miss rate for demand accesses
system.l2.demand_mshr_miss_rate::total       0.395572                       # mshr miss rate for demand accesses
system.l2.overall_mshr_miss_rate::cpu.inst     0.767907                       # mshr miss rate for overall accesses
system.l2.overall_mshr_miss_rate::cpu.data     0.229011                       # mshr miss rate for overall accesses
system.l2.overall_mshr_miss_rate::l2.prefetcher          inf                       # mshr miss rate for overall accesses
system.l2.overall_mshr_miss_rate::total      0.772782                       # mshr miss rate for overall accesses
system.l2.HardPFReq_avg_mshr_miss_latency::l2.prefetcher 184816.868062                       # average HardPFReq mshr miss latency
system.l2.HardPFReq_avg_mshr_miss_latency::total 184816.868062                       # average HardPFReq mshr miss latency
system.l2.ReadExReq_avg_mshr_miss_latency::cpu.data 150614.138439                       # average ReadExReq mshr miss latency
system.l2.ReadExReq_avg_mshr_miss_latency::total 150614.138439                       # average ReadExReq mshr miss latency
system.l2.ReadCleanReq_avg_mshr_miss_latency::cpu.inst 76856.832972                       # average ReadCleanReq mshr miss latency
system.l2.ReadCleanReq_avg_mshr_miss_latency::total 76856.832972                       # average ReadCleanReq mshr miss latency
system.l2.ReadSharedReq_avg_mshr_miss_latency::cpu.data 83323.045267                       # average ReadSharedReq mshr miss latency
system.l2.ReadSharedReq_avg_mshr_miss_latency::total 83323.045267                       # average ReadSharedReq mshr miss latency
system.l2.InvalidateReq_avg_mshr_miss_latency::cpu.data        15000                       # average InvalidateReq mshr miss latency
system.l2.InvalidateReq_avg_mshr_miss_latency::total        15000                       # average InvalidateReq mshr miss latency
system.l2.demand_avg_mshr_miss_latency::cpu.inst 76856.832972                       # average overall mshr miss latency
system.l2.demand_avg_mshr_miss_latency::cpu.data 132879.067245                       # average overall mshr miss latency
system.l2.demand_avg_mshr_miss_latency::total 99265.726681                       # average overall mshr miss latency
system.l2.overall_avg_mshr_miss_latency::cpu.inst 76856.832972                       # average overall mshr miss latency
system.l2.overall_avg_mshr_miss_latency::cpu.data 132879.067245                       # average overall mshr miss latency
system.l2.overall_avg_mshr_miss_latency::l2.prefetcher 184816.868062                       # average overall mshr miss latency
system.l2.overall_avg_mshr_miss_latency::total 141024.866978                       # average overall mshr miss latency
system.membus.snoop_filter.tot_requests          4271                       # Total number of requests made to the snoop filter.
system.membus.snoop_filter.hit_single_requests           22                       # Number of requests hitting in the snoop filter with a single holder of the requested data.
system.membus.snoop_filter.hit_multi_requests            0                       # Number of requests hitting in the snoop filter with multiple (>1) holders of the requested data.
system.membus.snoop_filter.tot_snoops               0                       # Total number of snoops made to the snoop filter.
system.membus.snoop_filter.hit_single_snoops            0                       # Number of snoops hitting in the snoop filter with a single holder of the requested data.
system.membus.snoop_filter.hit_multi_snoops            0                       # Number of snoops hitting in the snoop filter with multiple (>1) holders of the requested data.
system.membus.pwrStateResidencyTicks::UNDEFINED  61259545500                       # Cumulative time (in ticks) in various power states
system.membus.trans_dist::ReadResp               3588                       # Transaction distribution
system.membus.trans_dist::ReadExReq               679                       # Transaction distribution
system.membus.trans_dist::ReadExResp              679                       # Transaction distribution
system.membus.trans_dist::ReadSharedReq          3588                       # Transaction distribution
system.membus.trans_dist::InvalidateReq             4                       # Transaction distribution
system.membus.pkt_count_system.l2.mem_side::system.mem_ctrls.port         8538                       # Packet count per connected master and slave (bytes)
system.membus.pkt_count::total                   8538                       # Packet count per connected master and slave (bytes)
system.membus.pkt_size_system.l2.mem_side::system.mem_ctrls.port       273088                       # Cumulative packet size per connected master and slave (bytes)
system.membus.pkt_size::total                  273088                       # Cumulative packet size per connected master and slave (bytes)
system.membus.snoops                                0                       # Total snoops (count)
system.membus.snoopTraffic                          0                       # Total snoop traffic (bytes)
system.membus.snoop_fanout::samples              4271                       # Request fanout histogram
system.membus.snoop_fanout::mean                    0                       # Request fanout histogram
system.membus.snoop_fanout::stdev                   0                       # Request fanout histogram
system.membus.snoop_fanout::underflows              0      0.00%      0.00% # Request fanout histogram
system.membus.snoop_fanout::0                    4271    100.00%    100.00% # Request fanout histogram
system.membus.snoop_fanout::1                       0      0.00%    100.00% # Request fanout histogram
system.membus.snoop_fanout::overflows               0      0.00%    100.00% # Request fanout histogram
system.membus.snoop_fanout::min_value               0                       # Request fanout histogram
system.membus.snoop_fanout::max_value               0                       # Request fanout histogram
system.membus.snoop_fanout::total                4271                       # Request fanout histogram
system.membus.reqLayer0.occupancy             5918998                       # Layer occupancy (ticks)
system.membus.reqLayer0.utilization               0.0                       # Layer utilization (%)
system.membus.respLayer1.occupancy           22541569                       # Layer occupancy (ticks)
system.membus.respLayer1.utilization              0.0                       # Layer utilization (%)
system.tol2bus.snoop_filter.tot_requests        10127                       # Total number of requests made to the snoop filter.
system.tol2bus.snoop_filter.hit_single_requests         4304                       # Number of requests hitting in the snoop filter with a single holder of the requested data.
system.tol2bus.snoop_filter.hit_multi_requests           17                       # Number of requests hitting in the snoop filter with multiple (>1) holders of the requested data.
system.tol2bus.snoop_filter.tot_snoops            235                       # Total number of snoops made to the snoop filter.
system.tol2bus.snoop_filter.hit_single_snoops          235                       # Number of snoops hitting in the snoop filter with a single holder of the requested data.
system.tol2bus.snoop_filter.hit_multi_snoops            0                       # Number of snoops hitting in the snoop filter with multiple (>1) holders of the requested data.
system.tol2bus.pwrStateResidencyTicks::UNDEFINED  61259545500                       # Cumulative time (in ticks) in various power states
system.tol2bus.trans_dist::ReadResp              2952                       # Transaction distribution
system.tol2bus.trans_dist::WritebackDirty         2833                       # Transaction distribution
system.tol2bus.trans_dist::WritebackClean         1463                       # Transaction distribution
system.tol2bus.trans_dist::HardPFReq             2630                       # Transaction distribution
system.tol2bus.trans_dist::ReadExReq             2874                       # Transaction distribution
system.tol2bus.trans_dist::ReadExResp            2874                       # Transaction distribution
system.tol2bus.trans_dist::ReadCleanReq          1801                       # Transaction distribution
system.tol2bus.trans_dist::ReadSharedReq         1152                       # Transaction distribution
system.tol2bus.trans_dist::InvalidateReq            4                       # Transaction distribution
system.tol2bus.trans_dist::InvalidateResp            4                       # Transaction distribution
system.tol2bus.pkt_count_system.cpu.icache.mem_side::system.l2.cpu_side         4891                       # Packet count per connected master and slave (bytes)
system.tol2bus.pkt_count_system.cpu.dcache.mem_side::system.l2.cpu_side        11066                       # Packet count per connected master and slave (bytes)
system.tol2bus.pkt_count::total                 15957                       # Packet count per connected master and slave (bytes)
system.tol2bus.pkt_size_system.cpu.icache.mem_side::system.l2.cpu_side       197760                       # Cumulative packet size per connected master and slave (bytes)
system.tol2bus.pkt_size_system.cpu.dcache.mem_side::system.l2.cpu_side       450048                       # Cumulative packet size per connected master and slave (bytes)
system.tol2bus.pkt_size::total                 647808                       # Cumulative packet size per connected master and slave (bytes)
system.tol2bus.snoops                            2630                       # Total snoops (count)
system.tol2bus.snoopTraffic                         0                       # Total snoop traffic (bytes)
system.tol2bus.snoop_fanout::samples             8461                       # Request fanout histogram
system.tol2bus.snoop_fanout::mean            0.030729                       # Request fanout histogram
system.tol2bus.snoop_fanout::stdev           0.172593                       # Request fanout histogram
system.tol2bus.snoop_fanout::underflows             0      0.00%      0.00% # Request fanout histogram
system.tol2bus.snoop_fanout::0                   8201     96.93%     96.93% # Request fanout histogram
system.tol2bus.snoop_fanout::1                    260      3.07%    100.00% # Request fanout histogram
system.tol2bus.snoop_fanout::2                      0      0.00%    100.00% # Request fanout histogram
system.tol2bus.snoop_fanout::3                      0      0.00%    100.00% # Request fanout histogram
system.tol2bus.snoop_fanout::4                      0      0.00%    100.00% # Request fanout histogram
system.tol2bus.snoop_fanout::overflows              0      0.00%    100.00% # Request fanout histogram
system.tol2bus.snoop_fanout::min_value              0                       # Request fanout histogram
system.tol2bus.snoop_fanout::max_value              1                       # Request fanout histogram
system.tol2bus.snoop_fanout::total               8461                       # Request fanout histogram
system.tol2bus.reqLayer0.occupancy            9359500                       # Layer occupancy (ticks)
system.tol2bus.reqLayer0.utilization              0.0                       # Layer utilization (%)
system.tol2bus.respLayer0.occupancy           2700000                       # Layer occupancy (ticks)
system.tol2bus.respLayer0.utilization             0.0                       # Layer utilization (%)
system.tol2bus.respLayer1.occupancy           6042497                       # Layer occupancy (ticks)
system.tol2bus.respLayer1.utilization             0.0                       # Layer utilization (%)

---------- End Simulation Statistics   ----------
