gem5 Simulator System.  http://gem5.org
gem5 is copyrighted software; use the --copyright option for details.

gem5 compiled Dec  5 2017 00:08:03
gem5 started Dec  5 2017 00:37:58
gem5 executing on phicrow, pid 11446
command line: build/ARM/gem5.fast -d m5out/step1 ./configs/example/se.py --caches --l2cache --cpu-type=O3_ARM_v7a_3 -c ../benchmark/microbench/Step1 -o 10

Global frequency set at 1000000000000 ticks per second
**** REAL SIMULATION ****
Define patterns lengthExiting @ tick 79025134000 because exiting with last active thread context
