
---------- Begin Simulation Statistics ----------
sim_seconds                                  0.491794                       # Number of seconds simulated
sim_ticks                                491794498500                       # Number of ticks simulated
final_tick                               491794498500                       # Number of ticks from beginning of simulation (restored from checkpoints and never reset)
sim_freq                                 1000000000000                       # Frequency of simulated ticks
host_inst_rate                                 433296                       # Simulator instruction rate (inst/s)
host_op_rate                                   433515                       # Simulator op (including micro ops) rate (op/s)
host_tick_rate                              131102773                       # Simulator tick rate (ticks/s)
host_mem_usage                                 672168                       # Number of bytes of host memory used
host_seconds                                  3751.21                       # Real time elapsed on the host
sim_insts                                  1625385210                       # Number of instructions simulated
sim_ops                                    1626207280                       # Number of ops (including micro ops) simulated
system.voltage_domain.voltage                       1                       # Voltage in Volts
system.clk_domain.clock                          1000                       # Clock period in ticks
system.mem_ctrls.pwrStateResidencyTicks::UNDEFINED 491794498500                       # Cumulative time (in ticks) in various power states
system.mem_ctrls.bytes_read::cpu.inst           28672                       # Number of bytes read from this memory
system.mem_ctrls.bytes_read::cpu.data           12736                       # Number of bytes read from this memory
system.mem_ctrls.bytes_read::l2.prefetcher        32640                       # Number of bytes read from this memory
system.mem_ctrls.bytes_read::total              74048                       # Number of bytes read from this memory
system.mem_ctrls.bytes_inst_read::cpu.inst        28672                       # Number of instructions bytes read from this memory
system.mem_ctrls.bytes_inst_read::total         28672                       # Number of instructions bytes read from this memory
system.mem_ctrls.num_reads::cpu.inst              448                       # Number of read requests responded to by this memory
system.mem_ctrls.num_reads::cpu.data              199                       # Number of read requests responded to by this memory
system.mem_ctrls.num_reads::l2.prefetcher          510                       # Number of read requests responded to by this memory
system.mem_ctrls.num_reads::total                1157                       # Number of read requests responded to by this memory
system.mem_ctrls.bw_read::cpu.inst              58301                       # Total read bandwidth from this memory (bytes/s)
system.mem_ctrls.bw_read::cpu.data              25897                       # Total read bandwidth from this memory (bytes/s)
system.mem_ctrls.bw_read::l2.prefetcher         66369                       # Total read bandwidth from this memory (bytes/s)
system.mem_ctrls.bw_read::total                150567                       # Total read bandwidth from this memory (bytes/s)
system.mem_ctrls.bw_inst_read::cpu.inst         58301                       # Instruction read bandwidth from this memory (bytes/s)
system.mem_ctrls.bw_inst_read::total            58301                       # Instruction read bandwidth from this memory (bytes/s)
system.mem_ctrls.bw_total::cpu.inst             58301                       # Total bandwidth to/from this memory (bytes/s)
system.mem_ctrls.bw_total::cpu.data             25897                       # Total bandwidth to/from this memory (bytes/s)
system.mem_ctrls.bw_total::l2.prefetcher        66369                       # Total bandwidth to/from this memory (bytes/s)
system.mem_ctrls.bw_total::total               150567                       # Total bandwidth to/from this memory (bytes/s)
system.mem_ctrls.readReqs                        1158                       # Number of read requests accepted
system.mem_ctrls.writeReqs                          0                       # Number of write requests accepted
system.mem_ctrls.readBursts                      1158                       # Number of DRAM read bursts, including those serviced by the write queue
system.mem_ctrls.writeBursts                        0                       # Number of DRAM write bursts, including those merged in the write queue
system.mem_ctrls.bytesReadDRAM                  74112                       # Total number of bytes read from DRAM
system.mem_ctrls.bytesReadWrQ                       0                       # Total number of bytes read from write queue
system.mem_ctrls.bytesWritten                       0                       # Total number of bytes written to DRAM
system.mem_ctrls.bytesReadSys                   74112                       # Total read bytes from the system interface side
system.mem_ctrls.bytesWrittenSys                    0                       # Total written bytes from the system interface side
system.mem_ctrls.servicedByWrQ                      0                       # Number of DRAM read bursts serviced by the write queue
system.mem_ctrls.mergedWrBursts                     0                       # Number of DRAM write bursts merged with an existing one
system.mem_ctrls.neitherReadNorWriteReqs            0                       # Number of requests that are neither read nor write
system.mem_ctrls.perBankRdBursts::0               167                       # Per bank write bursts
system.mem_ctrls.perBankRdBursts::1               126                       # Per bank write bursts
system.mem_ctrls.perBankRdBursts::2               135                       # Per bank write bursts
system.mem_ctrls.perBankRdBursts::3               185                       # Per bank write bursts
system.mem_ctrls.perBankRdBursts::4                96                       # Per bank write bursts
system.mem_ctrls.perBankRdBursts::5                22                       # Per bank write bursts
system.mem_ctrls.perBankRdBursts::6                33                       # Per bank write bursts
system.mem_ctrls.perBankRdBursts::7                14                       # Per bank write bursts
system.mem_ctrls.perBankRdBursts::8                44                       # Per bank write bursts
system.mem_ctrls.perBankRdBursts::9                27                       # Per bank write bursts
system.mem_ctrls.perBankRdBursts::10               55                       # Per bank write bursts
system.mem_ctrls.perBankRdBursts::11               16                       # Per bank write bursts
system.mem_ctrls.perBankRdBursts::12               40                       # Per bank write bursts
system.mem_ctrls.perBankRdBursts::13               81                       # Per bank write bursts
system.mem_ctrls.perBankRdBursts::14               24                       # Per bank write bursts
system.mem_ctrls.perBankRdBursts::15               93                       # Per bank write bursts
system.mem_ctrls.perBankWrBursts::0                 0                       # Per bank write bursts
system.mem_ctrls.perBankWrBursts::1                 0                       # Per bank write bursts
system.mem_ctrls.perBankWrBursts::2                 0                       # Per bank write bursts
system.mem_ctrls.perBankWrBursts::3                 0                       # Per bank write bursts
system.mem_ctrls.perBankWrBursts::4                 0                       # Per bank write bursts
system.mem_ctrls.perBankWrBursts::5                 0                       # Per bank write bursts
system.mem_ctrls.perBankWrBursts::6                 0                       # Per bank write bursts
system.mem_ctrls.perBankWrBursts::7                 0                       # Per bank write bursts
system.mem_ctrls.perBankWrBursts::8                 0                       # Per bank write bursts
system.mem_ctrls.perBankWrBursts::9                 0                       # Per bank write bursts
system.mem_ctrls.perBankWrBursts::10                0                       # Per bank write bursts
system.mem_ctrls.perBankWrBursts::11                0                       # Per bank write bursts
system.mem_ctrls.perBankWrBursts::12                0                       # Per bank write bursts
system.mem_ctrls.perBankWrBursts::13                0                       # Per bank write bursts
system.mem_ctrls.perBankWrBursts::14                0                       # Per bank write bursts
system.mem_ctrls.perBankWrBursts::15                0                       # Per bank write bursts
system.mem_ctrls.numRdRetry                         0                       # Number of times read queue was full causing retry
system.mem_ctrls.numWrRetry                         0                       # Number of times write queue was full causing retry
system.mem_ctrls.totGap                  491794489500                       # Total gap between requests
system.mem_ctrls.readPktSize::0                     0                       # Read request sizes (log2)
system.mem_ctrls.readPktSize::1                     0                       # Read request sizes (log2)
system.mem_ctrls.readPktSize::2                     0                       # Read request sizes (log2)
system.mem_ctrls.readPktSize::3                     0                       # Read request sizes (log2)
system.mem_ctrls.readPktSize::4                     0                       # Read request sizes (log2)
system.mem_ctrls.readPktSize::5                     0                       # Read request sizes (log2)
system.mem_ctrls.readPktSize::6                  1158                       # Read request sizes (log2)
system.mem_ctrls.writePktSize::0                    0                       # Write request sizes (log2)
system.mem_ctrls.writePktSize::1                    0                       # Write request sizes (log2)
system.mem_ctrls.writePktSize::2                    0                       # Write request sizes (log2)
system.mem_ctrls.writePktSize::3                    0                       # Write request sizes (log2)
system.mem_ctrls.writePktSize::4                    0                       # Write request sizes (log2)
system.mem_ctrls.writePktSize::5                    0                       # Write request sizes (log2)
system.mem_ctrls.writePktSize::6                    0                       # Write request sizes (log2)
system.mem_ctrls.rdQLenPdf::0                     765                       # What read queue length does an incoming req see
system.mem_ctrls.rdQLenPdf::1                     206                       # What read queue length does an incoming req see
system.mem_ctrls.rdQLenPdf::2                      84                       # What read queue length does an incoming req see
system.mem_ctrls.rdQLenPdf::3                      27                       # What read queue length does an incoming req see
system.mem_ctrls.rdQLenPdf::4                      24                       # What read queue length does an incoming req see
system.mem_ctrls.rdQLenPdf::5                      13                       # What read queue length does an incoming req see
system.mem_ctrls.rdQLenPdf::6                      11                       # What read queue length does an incoming req see
system.mem_ctrls.rdQLenPdf::7                      11                       # What read queue length does an incoming req see
system.mem_ctrls.rdQLenPdf::8                      11                       # What read queue length does an incoming req see
system.mem_ctrls.rdQLenPdf::9                       1                       # What read queue length does an incoming req see
system.mem_ctrls.rdQLenPdf::10                      2                       # What read queue length does an incoming req see
system.mem_ctrls.rdQLenPdf::11                      1                       # What read queue length does an incoming req see
system.mem_ctrls.rdQLenPdf::12                      1                       # What read queue length does an incoming req see
system.mem_ctrls.rdQLenPdf::13                      1                       # What read queue length does an incoming req see
system.mem_ctrls.rdQLenPdf::14                      0                       # What read queue length does an incoming req see
system.mem_ctrls.rdQLenPdf::15                      0                       # What read queue length does an incoming req see
system.mem_ctrls.rdQLenPdf::16                      0                       # What read queue length does an incoming req see
system.mem_ctrls.rdQLenPdf::17                      0                       # What read queue length does an incoming req see
system.mem_ctrls.rdQLenPdf::18                      0                       # What read queue length does an incoming req see
system.mem_ctrls.rdQLenPdf::19                      0                       # What read queue length does an incoming req see
system.mem_ctrls.rdQLenPdf::20                      0                       # What read queue length does an incoming req see
system.mem_ctrls.rdQLenPdf::21                      0                       # What read queue length does an incoming req see
system.mem_ctrls.rdQLenPdf::22                      0                       # What read queue length does an incoming req see
system.mem_ctrls.rdQLenPdf::23                      0                       # What read queue length does an incoming req see
system.mem_ctrls.rdQLenPdf::24                      0                       # What read queue length does an incoming req see
system.mem_ctrls.rdQLenPdf::25                      0                       # What read queue length does an incoming req see
system.mem_ctrls.rdQLenPdf::26                      0                       # What read queue length does an incoming req see
system.mem_ctrls.rdQLenPdf::27                      0                       # What read queue length does an incoming req see
system.mem_ctrls.rdQLenPdf::28                      0                       # What read queue length does an incoming req see
system.mem_ctrls.rdQLenPdf::29                      0                       # What read queue length does an incoming req see
system.mem_ctrls.rdQLenPdf::30                      0                       # What read queue length does an incoming req see
system.mem_ctrls.rdQLenPdf::31                      0                       # What read queue length does an incoming req see
system.mem_ctrls.wrQLenPdf::0                       0                       # What write queue length does an incoming req see
system.mem_ctrls.wrQLenPdf::1                       0                       # What write queue length does an incoming req see
system.mem_ctrls.wrQLenPdf::2                       0                       # What write queue length does an incoming req see
system.mem_ctrls.wrQLenPdf::3                       0                       # What write queue length does an incoming req see
system.mem_ctrls.wrQLenPdf::4                       0                       # What write queue length does an incoming req see
system.mem_ctrls.wrQLenPdf::5                       0                       # What write queue length does an incoming req see
system.mem_ctrls.wrQLenPdf::6                       0                       # What write queue length does an incoming req see
system.mem_ctrls.wrQLenPdf::7                       0                       # What write queue length does an incoming req see
system.mem_ctrls.wrQLenPdf::8                       0                       # What write queue length does an incoming req see
system.mem_ctrls.wrQLenPdf::9                       0                       # What write queue length does an incoming req see
system.mem_ctrls.wrQLenPdf::10                      0                       # What write queue length does an incoming req see
system.mem_ctrls.wrQLenPdf::11                      0                       # What write queue length does an incoming req see
system.mem_ctrls.wrQLenPdf::12                      0                       # What write queue length does an incoming req see
system.mem_ctrls.wrQLenPdf::13                      0                       # What write queue length does an incoming req see
system.mem_ctrls.wrQLenPdf::14                      0                       # What write queue length does an incoming req see
system.mem_ctrls.wrQLenPdf::15                      0                       # What write queue length does an incoming req see
system.mem_ctrls.wrQLenPdf::16                      0                       # What write queue length does an incoming req see
system.mem_ctrls.wrQLenPdf::17                      0                       # What write queue length does an incoming req see
system.mem_ctrls.wrQLenPdf::18                      0                       # What write queue length does an incoming req see
system.mem_ctrls.wrQLenPdf::19                      0                       # What write queue length does an incoming req see
system.mem_ctrls.wrQLenPdf::20                      0                       # What write queue length does an incoming req see
system.mem_ctrls.wrQLenPdf::21                      0                       # What write queue length does an incoming req see
system.mem_ctrls.wrQLenPdf::22                      0                       # What write queue length does an incoming req see
system.mem_ctrls.wrQLenPdf::23                      0                       # What write queue length does an incoming req see
system.mem_ctrls.wrQLenPdf::24                      0                       # What write queue length does an incoming req see
system.mem_ctrls.wrQLenPdf::25                      0                       # What write queue length does an incoming req see
system.mem_ctrls.wrQLenPdf::26                      0                       # What write queue length does an incoming req see
system.mem_ctrls.wrQLenPdf::27                      0                       # What write queue length does an incoming req see
system.mem_ctrls.wrQLenPdf::28                      0                       # What write queue length does an incoming req see
system.mem_ctrls.wrQLenPdf::29                      0                       # What write queue length does an incoming req see
system.mem_ctrls.wrQLenPdf::30                      0                       # What write queue length does an incoming req see
system.mem_ctrls.wrQLenPdf::31                      0                       # What write queue length does an incoming req see
system.mem_ctrls.wrQLenPdf::32                      0                       # What write queue length does an incoming req see
system.mem_ctrls.wrQLenPdf::33                      0                       # What write queue length does an incoming req see
system.mem_ctrls.wrQLenPdf::34                      0                       # What write queue length does an incoming req see
system.mem_ctrls.wrQLenPdf::35                      0                       # What write queue length does an incoming req see
system.mem_ctrls.wrQLenPdf::36                      0                       # What write queue length does an incoming req see
system.mem_ctrls.wrQLenPdf::37                      0                       # What write queue length does an incoming req see
system.mem_ctrls.wrQLenPdf::38                      0                       # What write queue length does an incoming req see
system.mem_ctrls.wrQLenPdf::39                      0                       # What write queue length does an incoming req see
system.mem_ctrls.wrQLenPdf::40                      0                       # What write queue length does an incoming req see
system.mem_ctrls.wrQLenPdf::41                      0                       # What write queue length does an incoming req see
system.mem_ctrls.wrQLenPdf::42                      0                       # What write queue length does an incoming req see
system.mem_ctrls.wrQLenPdf::43                      0                       # What write queue length does an incoming req see
system.mem_ctrls.wrQLenPdf::44                      0                       # What write queue length does an incoming req see
system.mem_ctrls.wrQLenPdf::45                      0                       # What write queue length does an incoming req see
system.mem_ctrls.wrQLenPdf::46                      0                       # What write queue length does an incoming req see
system.mem_ctrls.wrQLenPdf::47                      0                       # What write queue length does an incoming req see
system.mem_ctrls.wrQLenPdf::48                      0                       # What write queue length does an incoming req see
system.mem_ctrls.wrQLenPdf::49                      0                       # What write queue length does an incoming req see
system.mem_ctrls.wrQLenPdf::50                      0                       # What write queue length does an incoming req see
system.mem_ctrls.wrQLenPdf::51                      0                       # What write queue length does an incoming req see
system.mem_ctrls.wrQLenPdf::52                      0                       # What write queue length does an incoming req see
system.mem_ctrls.wrQLenPdf::53                      0                       # What write queue length does an incoming req see
system.mem_ctrls.wrQLenPdf::54                      0                       # What write queue length does an incoming req see
system.mem_ctrls.wrQLenPdf::55                      0                       # What write queue length does an incoming req see
system.mem_ctrls.wrQLenPdf::56                      0                       # What write queue length does an incoming req see
system.mem_ctrls.wrQLenPdf::57                      0                       # What write queue length does an incoming req see
system.mem_ctrls.wrQLenPdf::58                      0                       # What write queue length does an incoming req see
system.mem_ctrls.wrQLenPdf::59                      0                       # What write queue length does an incoming req see
system.mem_ctrls.wrQLenPdf::60                      0                       # What write queue length does an incoming req see
system.mem_ctrls.wrQLenPdf::61                      0                       # What write queue length does an incoming req see
system.mem_ctrls.wrQLenPdf::62                      0                       # What write queue length does an incoming req see
system.mem_ctrls.wrQLenPdf::63                      0                       # What write queue length does an incoming req see
system.mem_ctrls.bytesPerActivate::samples          182                       # Bytes accessed per row activation
system.mem_ctrls.bytesPerActivate::mean    392.439560                       # Bytes accessed per row activation
system.mem_ctrls.bytesPerActivate::gmean   221.929230                       # Bytes accessed per row activation
system.mem_ctrls.bytesPerActivate::stdev   384.201352                       # Bytes accessed per row activation
system.mem_ctrls.bytesPerActivate::0-127           62     34.07%     34.07% # Bytes accessed per row activation
system.mem_ctrls.bytesPerActivate::128-255           36     19.78%     53.85% # Bytes accessed per row activation
system.mem_ctrls.bytesPerActivate::256-383           16      8.79%     62.64% # Bytes accessed per row activation
system.mem_ctrls.bytesPerActivate::384-511            7      3.85%     66.48% # Bytes accessed per row activation
system.mem_ctrls.bytesPerActivate::512-639           10      5.49%     71.98% # Bytes accessed per row activation
system.mem_ctrls.bytesPerActivate::640-767            4      2.20%     74.18% # Bytes accessed per row activation
system.mem_ctrls.bytesPerActivate::768-895            5      2.75%     76.92% # Bytes accessed per row activation
system.mem_ctrls.bytesPerActivate::896-1023            2      1.10%     78.02% # Bytes accessed per row activation
system.mem_ctrls.bytesPerActivate::1024-1151           40     21.98%    100.00% # Bytes accessed per row activation
system.mem_ctrls.bytesPerActivate::total          182                       # Bytes accessed per row activation
system.mem_ctrls.totQLat                     34233395                       # Total ticks spent queuing
system.mem_ctrls.totMemAccLat                55945895                       # Total ticks spent from burst creation until serviced by the DRAM
system.mem_ctrls.totBusLat                    5790000                       # Total ticks spent in databus transfers
system.mem_ctrls.avgQLat                     29562.52                       # Average queueing delay per DRAM burst
system.mem_ctrls.avgBusLat                    5000.00                       # Average bus latency per DRAM burst
system.mem_ctrls.avgMemAccLat                48312.52                       # Average memory access latency per DRAM burst
system.mem_ctrls.avgRdBW                         0.15                       # Average DRAM read bandwidth in MiByte/s
system.mem_ctrls.avgWrBW                         0.00                       # Average achieved write bandwidth in MiByte/s
system.mem_ctrls.avgRdBWSys                      0.15                       # Average system read bandwidth in MiByte/s
system.mem_ctrls.avgWrBWSys                      0.00                       # Average system write bandwidth in MiByte/s
system.mem_ctrls.peakBW                      12800.00                       # Theoretical peak bandwidth in MiByte/s
system.mem_ctrls.busUtil                         0.00                       # Data bus utilization in percentage
system.mem_ctrls.busUtilRead                     0.00                       # Data bus utilization in percentage for reads
system.mem_ctrls.busUtilWrite                    0.00                       # Data bus utilization in percentage for writes
system.mem_ctrls.avgRdQLen                       1.70                       # Average read queue length when enqueuing
system.mem_ctrls.avgWrQLen                       0.00                       # Average write queue length when enqueuing
system.mem_ctrls.readRowHits                      966                       # Number of row buffer hits during reads
system.mem_ctrls.writeRowHits                       0                       # Number of row buffer hits during writes
system.mem_ctrls.readRowHitRate                 83.42                       # Row buffer hit rate for reads
system.mem_ctrls.writeRowHitRate                  nan                       # Row buffer hit rate for writes
system.mem_ctrls.avgGap                  424692996.11                       # Average gap between requests
system.mem_ctrls.pageHitRate                    83.42                       # Row buffer hit rate, read and write combined
system.mem_ctrls_0.actEnergy                   671160                       # Energy for activate commands per rank (pJ)
system.mem_ctrls_0.preEnergy                   333960                       # Energy for precharge commands per rank (pJ)
system.mem_ctrls_0.readEnergy                 5554920                       # Energy for read commands per rank (pJ)
system.mem_ctrls_0.writeEnergy                      0                       # Energy for write commands per rank (pJ)
system.mem_ctrls_0.refreshEnergy         9219600.000000                       # Energy for refresh commands per rank (pJ)
system.mem_ctrls_0.actBackEnergy             10189320                       # Energy for active background per rank (pJ)
system.mem_ctrls_0.preBackEnergy               586080                       # Energy for precharge background per rank (pJ)
system.mem_ctrls_0.actPowerDownEnergy        22773210                       # Energy for active power-down per rank (pJ)
system.mem_ctrls_0.prePowerDownEnergy         9672000                       # Energy for precharge power-down per rank (pJ)
system.mem_ctrls_0.selfRefreshEnergy     118008576420                       # Energy for self refresh per rank (pJ)
system.mem_ctrls_0.totalEnergy           118067576670                       # Total energy per rank (pJ)
system.mem_ctrls_0.averagePower            240.075025                       # Core power per rank (mW)
system.mem_ctrls_0.totalIdleTime         491770599750                       # Total Idle time Per DRAM Rank
system.mem_ctrls_0.memoryStateTime::IDLE       931000                       # Time in different power states
system.mem_ctrls_0.memoryStateTime::REF       3918000                       # Time in different power states
system.mem_ctrls_0.memoryStateTime::SREF 491695498000                       # Time in different power states
system.mem_ctrls_0.memoryStateTime::PRE_PDN     25187993                       # Time in different power states
system.mem_ctrls_0.memoryStateTime::ACT      19027500                       # Time in different power states
system.mem_ctrls_0.memoryStateTime::ACT_PDN     49936007                       # Time in different power states
system.mem_ctrls_1.actEnergy                   699720                       # Energy for activate commands per rank (pJ)
system.mem_ctrls_1.preEnergy                   356730                       # Energy for precharge commands per rank (pJ)
system.mem_ctrls_1.readEnergy                 2706060                       # Energy for read commands per rank (pJ)
system.mem_ctrls_1.writeEnergy                      0                       # Energy for write commands per rank (pJ)
system.mem_ctrls_1.refreshEnergy         35649120.000000                       # Energy for refresh commands per rank (pJ)
system.mem_ctrls_1.actBackEnergy             10819170                       # Energy for active background per rank (pJ)
system.mem_ctrls_1.preBackEnergy              2383200                       # Energy for precharge background per rank (pJ)
system.mem_ctrls_1.actPowerDownEnergy        66646110                       # Energy for active power-down per rank (pJ)
system.mem_ctrls_1.prePowerDownEnergy        56900640                       # Energy for precharge power-down per rank (pJ)
system.mem_ctrls_1.selfRefreshEnergy     117962796420                       # Energy for self refresh per rank (pJ)
system.mem_ctrls_1.totalEnergy           118138957170                       # Total energy per rank (pJ)
system.mem_ctrls_1.averagePower            240.220168                       # Core power per rank (mW)
system.mem_ctrls_1.totalIdleTime         491764560000                       # Total Idle time Per DRAM Rank
system.mem_ctrls_1.memoryStateTime::IDLE      4969000                       # Time in different power states
system.mem_ctrls_1.memoryStateTime::REF      15188000                       # Time in different power states
system.mem_ctrls_1.memoryStateTime::SREF 491470234000                       # Time in different power states
system.mem_ctrls_1.memoryStateTime::PRE_PDN    148179250                       # Time in different power states
system.mem_ctrls_1.memoryStateTime::ACT       9781500                       # Time in different power states
system.mem_ctrls_1.memoryStateTime::ACT_PDN    146146750                       # Time in different power states
system.pwrStateResidencyTicks::UNDEFINED 491794498500                       # Cumulative time (in ticks) in various power states
system.cpu.branchPred.lookups               230328269                       # Number of BP lookups
system.cpu.branchPred.condPredicted         220318036                       # Number of conditional branches predicted
system.cpu.branchPred.condIncorrect          10729209                       # Number of conditional branches incorrect
system.cpu.branchPred.BTBLookups            219787034                       # Number of BTB lookups
system.cpu.branchPred.BTBHits               219770527                       # Number of BTB hits
system.cpu.branchPred.BTBCorrect                    0                       # Number of correct BTB predictions (this stat may not work properly.
system.cpu.branchPred.BTBHitPct             99.992490                       # BTB Hit Percentage
system.cpu.branchPred.usedRAS                 2874619                       # Number of times the RAS was used to get a target.
system.cpu.branchPred.RASInCorrect                310                       # Number of incorrect RAS predictions.
system.cpu.branchPred.indirectLookups            1340                       # Number of indirect predictor lookups.
system.cpu.branchPred.indirectHits                771                       # Number of indirect target hits.
system.cpu.branchPred.indirectMisses              569                       # Number of indirect misses.
system.cpu.branchPredindirectMispredicted          106                       # Number of mispredicted indirect branches.
system.cpu.branchPred.atLeastOneCorrectExpert      4553174                       # Number of mispredicts where there was at least one correct not-selected scheme.
system.cpu.branchPred.allExpertsSame        162870404                       # Number of times all experts voted in the same direction.
system.cpu.branchPred.lowWeightExpertsWon      1796662                       # Number of times where lower weighted experts overrode the highest weight expert.
system.cpu_voltage_domain.voltage                   1                       # Voltage in Volts
system.cpu_clk_domain.clock                       500                       # Clock period in ticks
system.cpu.dstage2_mmu.stage2_tlb.walker.pwrStateResidencyTicks::UNDEFINED 491794498500                       # Cumulative time (in ticks) in various power states
system.cpu.dstage2_mmu.stage2_tlb.walker.walks            0                       # Table walker walks requested
system.cpu.dstage2_mmu.stage2_tlb.walker.walkRequestOrigin_Requested::Data            0                       # Table walker requests started/completed, data/inst
system.cpu.dstage2_mmu.stage2_tlb.walker.walkRequestOrigin_Requested::Inst            0                       # Table walker requests started/completed, data/inst
system.cpu.dstage2_mmu.stage2_tlb.walker.walkRequestOrigin_Requested::total            0                       # Table walker requests started/completed, data/inst
system.cpu.dstage2_mmu.stage2_tlb.walker.walkRequestOrigin_Completed::Data            0                       # Table walker requests started/completed, data/inst
system.cpu.dstage2_mmu.stage2_tlb.walker.walkRequestOrigin_Completed::Inst            0                       # Table walker requests started/completed, data/inst
system.cpu.dstage2_mmu.stage2_tlb.walker.walkRequestOrigin_Completed::total            0                       # Table walker requests started/completed, data/inst
system.cpu.dstage2_mmu.stage2_tlb.walker.walkRequestOrigin::total            0                       # Table walker requests started/completed, data/inst
system.cpu.dstage2_mmu.stage2_tlb.inst_hits            0                       # ITB inst hits
system.cpu.dstage2_mmu.stage2_tlb.inst_misses            0                       # ITB inst misses
system.cpu.dstage2_mmu.stage2_tlb.read_hits            0                       # DTB read hits
system.cpu.dstage2_mmu.stage2_tlb.read_misses            0                       # DTB read misses
system.cpu.dstage2_mmu.stage2_tlb.write_hits            0                       # DTB write hits
system.cpu.dstage2_mmu.stage2_tlb.write_misses            0                       # DTB write misses
system.cpu.dstage2_mmu.stage2_tlb.flush_tlb            0                       # Number of times complete TLB was flushed
system.cpu.dstage2_mmu.stage2_tlb.flush_tlb_mva            0                       # Number of times TLB was flushed by MVA
system.cpu.dstage2_mmu.stage2_tlb.flush_tlb_mva_asid            0                       # Number of times TLB was flushed by MVA & ASID
system.cpu.dstage2_mmu.stage2_tlb.flush_tlb_asid            0                       # Number of times TLB was flushed by ASID
system.cpu.dstage2_mmu.stage2_tlb.flush_entries            0                       # Number of entries that have been flushed from TLB
system.cpu.dstage2_mmu.stage2_tlb.align_faults            0                       # Number of TLB faults due to alignment restrictions
system.cpu.dstage2_mmu.stage2_tlb.prefetch_faults            0                       # Number of TLB faults due to prefetch
system.cpu.dstage2_mmu.stage2_tlb.domain_faults            0                       # Number of TLB faults due to domain restrictions
system.cpu.dstage2_mmu.stage2_tlb.perms_faults            0                       # Number of TLB faults due to permissions restrictions
system.cpu.dstage2_mmu.stage2_tlb.read_accesses            0                       # DTB read accesses
system.cpu.dstage2_mmu.stage2_tlb.write_accesses            0                       # DTB write accesses
system.cpu.dstage2_mmu.stage2_tlb.inst_accesses            0                       # ITB inst accesses
system.cpu.dstage2_mmu.stage2_tlb.hits              0                       # DTB hits
system.cpu.dstage2_mmu.stage2_tlb.misses            0                       # DTB misses
system.cpu.dstage2_mmu.stage2_tlb.accesses            0                       # DTB accesses
system.cpu.dtb.walker.pwrStateResidencyTicks::UNDEFINED 491794498500                       # Cumulative time (in ticks) in various power states
system.cpu.dtb.walker.walks                         0                       # Table walker walks requested
system.cpu.dtb.walker.walkRequestOrigin_Requested::Data            0                       # Table walker requests started/completed, data/inst
system.cpu.dtb.walker.walkRequestOrigin_Requested::Inst            0                       # Table walker requests started/completed, data/inst
system.cpu.dtb.walker.walkRequestOrigin_Requested::total            0                       # Table walker requests started/completed, data/inst
system.cpu.dtb.walker.walkRequestOrigin_Completed::Data            0                       # Table walker requests started/completed, data/inst
system.cpu.dtb.walker.walkRequestOrigin_Completed::Inst            0                       # Table walker requests started/completed, data/inst
system.cpu.dtb.walker.walkRequestOrigin_Completed::total            0                       # Table walker requests started/completed, data/inst
system.cpu.dtb.walker.walkRequestOrigin::total            0                       # Table walker requests started/completed, data/inst
system.cpu.dtb.inst_hits                            0                       # ITB inst hits
system.cpu.dtb.inst_misses                          0                       # ITB inst misses
system.cpu.dtb.read_hits                            0                       # DTB read hits
system.cpu.dtb.read_misses                          0                       # DTB read misses
system.cpu.dtb.write_hits                           0                       # DTB write hits
system.cpu.dtb.write_misses                         0                       # DTB write misses
system.cpu.dtb.flush_tlb                            0                       # Number of times complete TLB was flushed
system.cpu.dtb.flush_tlb_mva                        0                       # Number of times TLB was flushed by MVA
system.cpu.dtb.flush_tlb_mva_asid                   0                       # Number of times TLB was flushed by MVA & ASID
system.cpu.dtb.flush_tlb_asid                       0                       # Number of times TLB was flushed by ASID
system.cpu.dtb.flush_entries                        0                       # Number of entries that have been flushed from TLB
system.cpu.dtb.align_faults                         0                       # Number of TLB faults due to alignment restrictions
system.cpu.dtb.prefetch_faults                      0                       # Number of TLB faults due to prefetch
system.cpu.dtb.domain_faults                        0                       # Number of TLB faults due to domain restrictions
system.cpu.dtb.perms_faults                         0                       # Number of TLB faults due to permissions restrictions
system.cpu.dtb.read_accesses                        0                       # DTB read accesses
system.cpu.dtb.write_accesses                       0                       # DTB write accesses
system.cpu.dtb.inst_accesses                        0                       # ITB inst accesses
system.cpu.dtb.hits                                 0                       # DTB hits
system.cpu.dtb.misses                               0                       # DTB misses
system.cpu.dtb.accesses                             0                       # DTB accesses
system.cpu.istage2_mmu.stage2_tlb.walker.pwrStateResidencyTicks::UNDEFINED 491794498500                       # Cumulative time (in ticks) in various power states
system.cpu.istage2_mmu.stage2_tlb.walker.walks            0                       # Table walker walks requested
system.cpu.istage2_mmu.stage2_tlb.walker.walkRequestOrigin_Requested::Data            0                       # Table walker requests started/completed, data/inst
system.cpu.istage2_mmu.stage2_tlb.walker.walkRequestOrigin_Requested::Inst            0                       # Table walker requests started/completed, data/inst
system.cpu.istage2_mmu.stage2_tlb.walker.walkRequestOrigin_Requested::total            0                       # Table walker requests started/completed, data/inst
system.cpu.istage2_mmu.stage2_tlb.walker.walkRequestOrigin_Completed::Data            0                       # Table walker requests started/completed, data/inst
system.cpu.istage2_mmu.stage2_tlb.walker.walkRequestOrigin_Completed::Inst            0                       # Table walker requests started/completed, data/inst
system.cpu.istage2_mmu.stage2_tlb.walker.walkRequestOrigin_Completed::total            0                       # Table walker requests started/completed, data/inst
system.cpu.istage2_mmu.stage2_tlb.walker.walkRequestOrigin::total            0                       # Table walker requests started/completed, data/inst
system.cpu.istage2_mmu.stage2_tlb.inst_hits            0                       # ITB inst hits
system.cpu.istage2_mmu.stage2_tlb.inst_misses            0                       # ITB inst misses
system.cpu.istage2_mmu.stage2_tlb.read_hits            0                       # DTB read hits
system.cpu.istage2_mmu.stage2_tlb.read_misses            0                       # DTB read misses
system.cpu.istage2_mmu.stage2_tlb.write_hits            0                       # DTB write hits
system.cpu.istage2_mmu.stage2_tlb.write_misses            0                       # DTB write misses
system.cpu.istage2_mmu.stage2_tlb.flush_tlb            0                       # Number of times complete TLB was flushed
system.cpu.istage2_mmu.stage2_tlb.flush_tlb_mva            0                       # Number of times TLB was flushed by MVA
system.cpu.istage2_mmu.stage2_tlb.flush_tlb_mva_asid            0                       # Number of times TLB was flushed by MVA & ASID
system.cpu.istage2_mmu.stage2_tlb.flush_tlb_asid            0                       # Number of times TLB was flushed by ASID
system.cpu.istage2_mmu.stage2_tlb.flush_entries            0                       # Number of entries that have been flushed from TLB
system.cpu.istage2_mmu.stage2_tlb.align_faults            0                       # Number of TLB faults due to alignment restrictions
system.cpu.istage2_mmu.stage2_tlb.prefetch_faults            0                       # Number of TLB faults due to prefetch
system.cpu.istage2_mmu.stage2_tlb.domain_faults            0                       # Number of TLB faults due to domain restrictions
system.cpu.istage2_mmu.stage2_tlb.perms_faults            0                       # Number of TLB faults due to permissions restrictions
system.cpu.istage2_mmu.stage2_tlb.read_accesses            0                       # DTB read accesses
system.cpu.istage2_mmu.stage2_tlb.write_accesses            0                       # DTB write accesses
system.cpu.istage2_mmu.stage2_tlb.inst_accesses            0                       # ITB inst accesses
system.cpu.istage2_mmu.stage2_tlb.hits              0                       # DTB hits
system.cpu.istage2_mmu.stage2_tlb.misses            0                       # DTB misses
system.cpu.istage2_mmu.stage2_tlb.accesses            0                       # DTB accesses
system.cpu.itb.walker.pwrStateResidencyTicks::UNDEFINED 491794498500                       # Cumulative time (in ticks) in various power states
system.cpu.itb.walker.walks                         0                       # Table walker walks requested
system.cpu.itb.walker.walkRequestOrigin_Requested::Data            0                       # Table walker requests started/completed, data/inst
system.cpu.itb.walker.walkRequestOrigin_Requested::Inst            0                       # Table walker requests started/completed, data/inst
system.cpu.itb.walker.walkRequestOrigin_Requested::total            0                       # Table walker requests started/completed, data/inst
system.cpu.itb.walker.walkRequestOrigin_Completed::Data            0                       # Table walker requests started/completed, data/inst
system.cpu.itb.walker.walkRequestOrigin_Completed::Inst            0                       # Table walker requests started/completed, data/inst
system.cpu.itb.walker.walkRequestOrigin_Completed::total            0                       # Table walker requests started/completed, data/inst
system.cpu.itb.walker.walkRequestOrigin::total            0                       # Table walker requests started/completed, data/inst
system.cpu.itb.inst_hits                            0                       # ITB inst hits
system.cpu.itb.inst_misses                          0                       # ITB inst misses
system.cpu.itb.read_hits                            0                       # DTB read hits
system.cpu.itb.read_misses                          0                       # DTB read misses
system.cpu.itb.write_hits                           0                       # DTB write hits
system.cpu.itb.write_misses                         0                       # DTB write misses
system.cpu.itb.flush_tlb                            0                       # Number of times complete TLB was flushed
system.cpu.itb.flush_tlb_mva                        0                       # Number of times TLB was flushed by MVA
system.cpu.itb.flush_tlb_mva_asid                   0                       # Number of times TLB was flushed by MVA & ASID
system.cpu.itb.flush_tlb_asid                       0                       # Number of times TLB was flushed by ASID
system.cpu.itb.flush_entries                        0                       # Number of entries that have been flushed from TLB
system.cpu.itb.align_faults                         0                       # Number of TLB faults due to alignment restrictions
system.cpu.itb.prefetch_faults                      0                       # Number of TLB faults due to prefetch
system.cpu.itb.domain_faults                        0                       # Number of TLB faults due to domain restrictions
system.cpu.itb.perms_faults                         0                       # Number of TLB faults due to permissions restrictions
system.cpu.itb.read_accesses                        0                       # DTB read accesses
system.cpu.itb.write_accesses                       0                       # DTB write accesses
system.cpu.itb.inst_accesses                        0                       # ITB inst accesses
system.cpu.itb.hits                                 0                       # DTB hits
system.cpu.itb.misses                               0                       # DTB misses
system.cpu.itb.accesses                             0                       # DTB accesses
system.cpu.workload.numSyscalls                    11                       # Number of system calls
system.cpu.pwrStateResidencyTicks::ON    491794498500                       # Cumulative time (in ticks) in various power states
system.cpu.numCycles                        983588998                       # number of cpu cycles simulated
system.cpu.numWorkItemsStarted                      0                       # number of work items this cpu started
system.cpu.numWorkItemsCompleted                    0                       # number of work items this cpu completed
system.cpu.fetch.icacheStallCycles            9655698                       # Number of cycles fetch is stalled on an Icache miss
system.cpu.fetch.Insts                     2120369872                       # Number of instructions fetch has processed
system.cpu.fetch.Branches                   230328269                       # Number of branches that fetch encountered
system.cpu.fetch.predictedBranches          222645917                       # Number of branches that fetch has predicted taken
system.cpu.fetch.Cycles                     963145434                       # Number of cycles fetch has run and was not squashing or blocked
system.cpu.fetch.SquashCycles                21492592                       # Number of cycles fetch has spent squashing
system.cpu.fetch.MiscStallCycles                  449                       # Number of cycles fetch has spent waiting on interrupts, or bad addresses, or out of MSHRs
system.cpu.fetch.IcacheWaitRetryStallCycles          574                       # Number of stall cycles due to full MSHR
system.cpu.fetch.CacheLines                 677819781                       # Number of cache lines fetched
system.cpu.fetch.IcacheSquashes                   318                       # Number of outstanding Icache misses that were squashed
system.cpu.fetch.rateDist::samples          983548451                       # Number of instructions fetched each cycle (Total)
system.cpu.fetch.rateDist::mean              2.157203                       # Number of instructions fetched each cycle (Total)
system.cpu.fetch.rateDist::stdev             0.965977                       # Number of instructions fetched each cycle (Total)
system.cpu.fetch.rateDist::underflows               0      0.00%      0.00% # Number of instructions fetched each cycle (Total)
system.cpu.fetch.rateDist::0                 23193381      2.36%      2.36% # Number of instructions fetched each cycle (Total)
system.cpu.fetch.rateDist::1                324144733     32.96%     35.31% # Number of instructions fetched each cycle (Total)
system.cpu.fetch.rateDist::2                111061787     11.29%     46.61% # Number of instructions fetched each cycle (Total)
system.cpu.fetch.rateDist::3                525148550     53.39%    100.00% # Number of instructions fetched each cycle (Total)
system.cpu.fetch.rateDist::overflows                0      0.00%    100.00% # Number of instructions fetched each cycle (Total)
system.cpu.fetch.rateDist::min_value                0                       # Number of instructions fetched each cycle (Total)
system.cpu.fetch.rateDist::max_value                3                       # Number of instructions fetched each cycle (Total)
system.cpu.fetch.rateDist::total            983548451                       # Number of instructions fetched each cycle (Total)
system.cpu.fetch.branchRate                  0.234171                       # Number of branch fetches per cycle
system.cpu.fetch.rate                        2.155748                       # Number of inst fetches per cycle
system.cpu.decode.IdleCycles                 67938085                       # Number of cycles decode is idle
system.cpu.decode.BlockedCycles              89699735                       # Number of cycles decode is blocked
system.cpu.decode.RunCycles                 749102618                       # Number of cycles decode is running
system.cpu.decode.UnblockCycles              66062270                       # Number of cycles decode is unblocking
system.cpu.decode.SquashCycles               10745743                       # Number of cycles decode is squashing
system.cpu.decode.BranchResolved            206451529                       # Number of times decode resolved a branch
system.cpu.decode.BranchMispred                   558                       # Number of times decode detected a branch misprediction
system.cpu.decode.DecodedInsts             2001454465                       # Number of instructions handled by decode
system.cpu.decode.SquashedInsts              48114590                       # Number of squashed instructions handled by decode
system.cpu.rename.SquashCycles               10745743                       # Number of cycles rename is squashing
system.cpu.rename.IdleCycles                125377491                       # Number of cycles rename is idle
system.cpu.rename.BlockCycles                35038569                       # Number of cycles rename is blocking
system.cpu.rename.serializeStallCycles          19426                       # count of cycles rename stalled for serializing inst
system.cpu.rename.RunCycles                 754967451                       # Number of cycles rename is running
system.cpu.rename.UnblockCycles              57399771                       # Number of cycles rename is unblocking
system.cpu.rename.RenamedInsts             1951093183                       # Number of instructions processed by rename
system.cpu.rename.SquashedInsts              20124843                       # Number of squashed instructions processed by rename
system.cpu.rename.ROBFullEvents              34752688                       # Number of times rename has blocked due to ROB full
system.cpu.rename.IQFullEvents                      4                       # Number of times rename has blocked due to IQ full
system.cpu.rename.SQFullEvents                   8690                       # Number of times rename has blocked due to SQ full
system.cpu.rename.FullRegisterEvents             1263                       # Number of times there has been no free registers
system.cpu.rename.RenamedOperands          2239495665                       # Number of destination operands rename has renamed
system.cpu.rename.RenameLookups            2639155125                       # Number of register rename lookups that rename has made
system.cpu.rename.int_rename_lookups       2031652794                       # Number of integer rename lookups
system.cpu.rename.vec_rename_lookups            12111                       # Number of vector rename lookups
system.cpu.rename.CommittedMaps            1870571236                       # Number of HB maps that are committed
system.cpu.rename.UndoneMaps                368924429                       # Number of HB maps that are undone due to squashing
system.cpu.rename.serializingInsts               1004                       # count of serializing insts renamed
system.cpu.rename.tempSerializingInsts            626                       # count of temporary serializing insts renamed
system.cpu.rename.skidInsts                 109682798                       # count of insts added to the skid buffer
system.cpu.memDep0.insertedLoads            694302731                       # Number of loads inserted to the mem dependence unit.
system.cpu.memDep0.insertedStores           110529388                       # Number of stores inserted to the mem dependence unit.
system.cpu.memDep0.conflictingLoads         196280526                       # Number of conflicting loads.
system.cpu.memDep0.conflictingStores          7616046                       # Number of conflicting stores.
system.cpu.iq.iqInstsAdded                 1929777990                       # Number of instructions added to the IQ (excludes non-spec)
system.cpu.iq.iqNonSpecInstsAdded                 610                       # Number of non-speculative instructions added to the IQ
system.cpu.iq.iqInstsIssued                1817817600                       # Number of instructions issued
system.cpu.iq.iqSquashedInstsIssued           4914096                       # Number of squashed instructions issued
system.cpu.iq.iqSquashedInstsExamined       303571319                       # Number of squashed instructions iterated over during squash; mainly for profiling
system.cpu.iq.iqSquashedOperandsExamined    231284128                       # Number of squashed operands that are examined and possibly removed from graph
system.cpu.iq.iqSquashedNonSpecRemoved            182                       # Number of squashed non-spec instructions that were removed
system.cpu.iq.issued_per_cycle::samples     983548451                       # Number of insts issued each cycle
system.cpu.iq.issued_per_cycle::mean         1.848224                       # Number of insts issued each cycle
system.cpu.iq.issued_per_cycle::stdev        0.983079                       # Number of insts issued each cycle
system.cpu.iq.issued_per_cycle::underflows            0      0.00%      0.00% # Number of insts issued each cycle
system.cpu.iq.issued_per_cycle::0           119273797     12.13%     12.13% # Number of insts issued each cycle
system.cpu.iq.issued_per_cycle::1           201823212     20.52%     32.65% # Number of insts issued each cycle
system.cpu.iq.issued_per_cycle::2           372955825     37.92%     70.57% # Number of insts issued each cycle
system.cpu.iq.issued_per_cycle::3           287899919     29.27%     99.84% # Number of insts issued each cycle
system.cpu.iq.issued_per_cycle::4             1595509      0.16%    100.00% # Number of insts issued each cycle
system.cpu.iq.issued_per_cycle::5                 189      0.00%    100.00% # Number of insts issued each cycle
system.cpu.iq.issued_per_cycle::6                   0      0.00%    100.00% # Number of insts issued each cycle
system.cpu.iq.issued_per_cycle::7                   0      0.00%    100.00% # Number of insts issued each cycle
system.cpu.iq.issued_per_cycle::8                   0      0.00%    100.00% # Number of insts issued each cycle
system.cpu.iq.issued_per_cycle::overflows            0      0.00%    100.00% # Number of insts issued each cycle
system.cpu.iq.issued_per_cycle::min_value            0                       # Number of insts issued each cycle
system.cpu.iq.issued_per_cycle::max_value            5                       # Number of insts issued each cycle
system.cpu.iq.issued_per_cycle::total       983548451                       # Number of insts issued each cycle
system.cpu.iq.fu_full::No_OpClass                   0      0.00%      0.00% # attempts to use FU when none available
system.cpu.iq.fu_full::IntAlu                80979223     20.13%     20.13% # attempts to use FU when none available
system.cpu.iq.fu_full::IntMult                      0      0.00%     20.13% # attempts to use FU when none available
system.cpu.iq.fu_full::IntDiv                       0      0.00%     20.13% # attempts to use FU when none available
system.cpu.iq.fu_full::FloatAdd                     0      0.00%     20.13% # attempts to use FU when none available
system.cpu.iq.fu_full::FloatCmp                     0      0.00%     20.13% # attempts to use FU when none available
system.cpu.iq.fu_full::FloatCvt                     0      0.00%     20.13% # attempts to use FU when none available
system.cpu.iq.fu_full::FloatMult                    0      0.00%     20.13% # attempts to use FU when none available
system.cpu.iq.fu_full::FloatMultAcc                 0      0.00%     20.13% # attempts to use FU when none available
system.cpu.iq.fu_full::FloatDiv                     0      0.00%     20.13% # attempts to use FU when none available
system.cpu.iq.fu_full::FloatMisc                    0      0.00%     20.13% # attempts to use FU when none available
system.cpu.iq.fu_full::FloatSqrt                    0      0.00%     20.13% # attempts to use FU when none available
system.cpu.iq.fu_full::SimdAdd                      0      0.00%     20.13% # attempts to use FU when none available
system.cpu.iq.fu_full::SimdAddAcc                   0      0.00%     20.13% # attempts to use FU when none available
system.cpu.iq.fu_full::SimdAlu                      1      0.00%     20.13% # attempts to use FU when none available
system.cpu.iq.fu_full::SimdCmp                    203      0.00%     20.13% # attempts to use FU when none available
system.cpu.iq.fu_full::SimdCvt                      0      0.00%     20.13% # attempts to use FU when none available
system.cpu.iq.fu_full::SimdMisc                     0      0.00%     20.13% # attempts to use FU when none available
system.cpu.iq.fu_full::SimdMult                     0      0.00%     20.13% # attempts to use FU when none available
system.cpu.iq.fu_full::SimdMultAcc                  0      0.00%     20.13% # attempts to use FU when none available
system.cpu.iq.fu_full::SimdShift                    0      0.00%     20.13% # attempts to use FU when none available
system.cpu.iq.fu_full::SimdShiftAcc                 0      0.00%     20.13% # attempts to use FU when none available
system.cpu.iq.fu_full::SimdSqrt                     0      0.00%     20.13% # attempts to use FU when none available
system.cpu.iq.fu_full::SimdFloatAdd                 0      0.00%     20.13% # attempts to use FU when none available
system.cpu.iq.fu_full::SimdFloatAlu                 0      0.00%     20.13% # attempts to use FU when none available
system.cpu.iq.fu_full::SimdFloatCmp                 0      0.00%     20.13% # attempts to use FU when none available
system.cpu.iq.fu_full::SimdFloatCvt                 0      0.00%     20.13% # attempts to use FU when none available
system.cpu.iq.fu_full::SimdFloatDiv                 0      0.00%     20.13% # attempts to use FU when none available
system.cpu.iq.fu_full::SimdFloatMisc                0      0.00%     20.13% # attempts to use FU when none available
system.cpu.iq.fu_full::SimdFloatMult                0      0.00%     20.13% # attempts to use FU when none available
system.cpu.iq.fu_full::SimdFloatMultAcc             0      0.00%     20.13% # attempts to use FU when none available
system.cpu.iq.fu_full::SimdFloatSqrt                0      0.00%     20.13% # attempts to use FU when none available
system.cpu.iq.fu_full::MemRead              319049326     79.33%     99.46% # attempts to use FU when none available
system.cpu.iq.fu_full::MemWrite               2158607      0.54%    100.00% # attempts to use FU when none available
system.cpu.iq.fu_full::FloatMemRead                 0      0.00%    100.00% # attempts to use FU when none available
system.cpu.iq.fu_full::FloatMemWrite                0      0.00%    100.00% # attempts to use FU when none available
system.cpu.iq.fu_full::IprAccess                    0      0.00%    100.00% # attempts to use FU when none available
system.cpu.iq.fu_full::InstPrefetch                 0      0.00%    100.00% # attempts to use FU when none available
system.cpu.iq.FU_type_0::No_OpClass               406      0.00%      0.00% # Type of FU issued
system.cpu.iq.FU_type_0::IntAlu            1054431092     58.01%     58.01% # Type of FU issued
system.cpu.iq.FU_type_0::IntMult                  805      0.00%     58.01% # Type of FU issued
system.cpu.iq.FU_type_0::IntDiv                     4      0.00%     58.01% # Type of FU issued
system.cpu.iq.FU_type_0::FloatAdd                   0      0.00%     58.01% # Type of FU issued
system.cpu.iq.FU_type_0::FloatCmp                   0      0.00%     58.01% # Type of FU issued
system.cpu.iq.FU_type_0::FloatCvt                   0      0.00%     58.01% # Type of FU issued
system.cpu.iq.FU_type_0::FloatMult                  0      0.00%     58.01% # Type of FU issued
system.cpu.iq.FU_type_0::FloatMultAcc               0      0.00%     58.01% # Type of FU issued
system.cpu.iq.FU_type_0::FloatDiv                   0      0.00%     58.01% # Type of FU issued
system.cpu.iq.FU_type_0::FloatMisc                  0      0.00%     58.01% # Type of FU issued
system.cpu.iq.FU_type_0::FloatSqrt                  0      0.00%     58.01% # Type of FU issued
system.cpu.iq.FU_type_0::SimdAdd                  811      0.00%     58.01% # Type of FU issued
system.cpu.iq.FU_type_0::SimdAddAcc                 0      0.00%     58.01% # Type of FU issued
system.cpu.iq.FU_type_0::SimdAlu                 1608      0.00%     58.01% # Type of FU issued
system.cpu.iq.FU_type_0::SimdCmp                 1624      0.00%     58.01% # Type of FU issued
system.cpu.iq.FU_type_0::SimdCvt                    0      0.00%     58.01% # Type of FU issued
system.cpu.iq.FU_type_0::SimdMisc                1207      0.00%     58.01% # Type of FU issued
system.cpu.iq.FU_type_0::SimdMult                   0      0.00%     58.01% # Type of FU issued
system.cpu.iq.FU_type_0::SimdMultAcc                0      0.00%     58.01% # Type of FU issued
system.cpu.iq.FU_type_0::SimdShift                  0      0.00%     58.01% # Type of FU issued
system.cpu.iq.FU_type_0::SimdShiftAcc               0      0.00%     58.01% # Type of FU issued
system.cpu.iq.FU_type_0::SimdSqrt                   0      0.00%     58.01% # Type of FU issued
system.cpu.iq.FU_type_0::SimdFloatAdd               0      0.00%     58.01% # Type of FU issued
system.cpu.iq.FU_type_0::SimdFloatAlu               0      0.00%     58.01% # Type of FU issued
system.cpu.iq.FU_type_0::SimdFloatCmp               0      0.00%     58.01% # Type of FU issued
system.cpu.iq.FU_type_0::SimdFloatCvt               0      0.00%     58.01% # Type of FU issued
system.cpu.iq.FU_type_0::SimdFloatDiv               0      0.00%     58.01% # Type of FU issued
system.cpu.iq.FU_type_0::SimdFloatMisc              0      0.00%     58.01% # Type of FU issued
system.cpu.iq.FU_type_0::SimdFloatMult              0      0.00%     58.01% # Type of FU issued
system.cpu.iq.FU_type_0::SimdFloatMultAcc            0      0.00%     58.01% # Type of FU issued
system.cpu.iq.FU_type_0::SimdFloatSqrt              0      0.00%     58.01% # Type of FU issued
system.cpu.iq.FU_type_0::MemRead            660993260     36.36%     94.37% # Type of FU issued
system.cpu.iq.FU_type_0::MemWrite           102386783      5.63%    100.00% # Type of FU issued
system.cpu.iq.FU_type_0::FloatMemRead               0      0.00%    100.00% # Type of FU issued
system.cpu.iq.FU_type_0::FloatMemWrite              0      0.00%    100.00% # Type of FU issued
system.cpu.iq.FU_type_0::IprAccess                  0      0.00%    100.00% # Type of FU issued
system.cpu.iq.FU_type_0::InstPrefetch               0      0.00%    100.00% # Type of FU issued
system.cpu.iq.FU_type_0::total             1817817600                       # Type of FU issued
system.cpu.iq.rate                           1.848148                       # Inst issue rate
system.cpu.iq.fu_busy_cnt                   402187360                       # FU busy when requested
system.cpu.iq.fu_busy_rate                   0.221247                       # FU busy rate (busy events/executed inst)
system.cpu.iq.int_inst_queue_reads         5026261815                       # Number of integer instruction queue reads
system.cpu.iq.int_inst_queue_writes        2233357938                       # Number of integer instruction queue writes
system.cpu.iq.int_inst_queue_wakeup_accesses   1782270675                       # Number of integer instruction queue wakeup accesses
system.cpu.iq.fp_inst_queue_reads                   0                       # Number of floating instruction queue reads
system.cpu.iq.fp_inst_queue_writes                  0                       # Number of floating instruction queue writes
system.cpu.iq.fp_inst_queue_wakeup_accesses            0                       # Number of floating instruction queue wakeup accesses
system.cpu.iq.int_alu_accesses             2219991346                       # Number of integer alu accesses
system.cpu.iq.fp_alu_accesses                       0                       # Number of floating point alu accesses
system.cpu.iew.lsq.thread0.forwLoads        265026254                       # Number of loads that had data forwarded from stores
system.cpu.iew.lsq.thread0.invAddrLoads             0                       # Number of loads ignored due to an invalid address
system.cpu.iew.lsq.thread0.squashedLoads    109279368                       # Number of loads squashed
system.cpu.iew.lsq.thread0.ignoredResponses      1597434                       # Number of memory responses ignored because the instruction is squashed
system.cpu.iew.lsq.thread0.memOrderViolation        18565                       # Number of memory ordering violations
system.cpu.iew.lsq.thread0.squashedStores     19693022                       # Number of stores squashed
system.cpu.iew.lsq.thread0.invAddrSwpfs             0                       # Number of software prefetches ignored due to an invalid address
system.cpu.iew.lsq.thread0.blockedLoads             0                       # Number of blocked loads due to partial load-store forwarding
system.cpu.iew.lsq.thread0.rescheduledLoads         2902                       # Number of loads that were rescheduled
system.cpu.iew.lsq.thread0.cacheBlocked            65                       # Number of times an access to memory failed due to the cache being blocked
system.cpu.iew.iewIdleCycles                        0                       # Number of cycles IEW is idle
system.cpu.iew.iewSquashCycles               10745743                       # Number of cycles IEW is squashing
system.cpu.iew.iewBlockCycles                29179568                       # Number of cycles IEW is blocking
system.cpu.iew.iewUnblockCycles                   915                       # Number of cycles IEW is unblocking
system.cpu.iew.iewDispatchedInsts          1930013743                       # Number of instructions dispatched to IQ
system.cpu.iew.iewDispSquashedInsts                 0                       # Number of squashed instructions skipped by dispatch
system.cpu.iew.iewDispLoadInsts             694302731                       # Number of dispatched load instructions
system.cpu.iew.iewDispStoreInsts            110529388                       # Number of dispatched store instructions
system.cpu.iew.iewDispNonSpecInsts                609                       # Number of dispatched non-speculative instructions
system.cpu.iew.iewIQFullEvents                      0                       # Number of times the IQ has become full, causing a stall
system.cpu.iew.iewLSQFullEvents                   915                       # Number of times the LSQ has become full, causing a stall
system.cpu.iew.memOrderViolationEvents          18565                       # Number of memory order violations
system.cpu.iew.predictedTakenIncorrect        9422023                       # Number of branches that were predicted taken incorrectly
system.cpu.iew.predictedNotTakenIncorrect      1711091                       # Number of branches that were predicted not taken incorrectly
system.cpu.iew.branchMispredicts             11133114                       # Number of branch mispredicts detected at execute
system.cpu.iew.iewExecutedInsts            1794572587                       # Number of executed instructions
system.cpu.iew.iewExecLoadInsts             645209899                       # Number of load instructions executed
system.cpu.iew.iewExecSquashedInsts          23245013                       # Number of squashed instructions skipped in execute
system.cpu.iew.exec_swp                             0                       # number of swp insts executed
system.cpu.iew.exec_nop                        235143                       # number of nop insts executed
system.cpu.iew.exec_refs                    746394583                       # number of memory reference insts executed
system.cpu.iew.exec_branches                185212770                       # Number of branches executed
system.cpu.iew.exec_stores                  101184684                       # Number of stores executed
system.cpu.iew.exec_rate                     1.824515                       # Inst execution rate
system.cpu.iew.wb_sent                     1788350477                       # cumulative count of insts sent to commit
system.cpu.iew.wb_count                    1782280347                       # cumulative count of insts written-back
system.cpu.iew.wb_producers                1459811854                       # num instructions producing a value
system.cpu.iew.wb_consumers                1815770552                       # num instructions consuming a value
system.cpu.iew.wb_rate                       1.812017                       # insts written-back per cycle
system.cpu.iew.wb_fanout                     0.803963                       # average fanout of values written-back
system.cpu.commit.commitSquashedInsts       282446753                       # The number of squashed insts skipped by commit
system.cpu.commit.commitNonSpecStalls             428                       # The number of times commit has been forced to stall to communicate backwards
system.cpu.commit.branchMispredicts          10728656                       # The number of times a branch was mispredicted
system.cpu.commit.committed_per_cycle::samples    943624365                       # Number of insts commited each cycle
system.cpu.commit.committed_per_cycle::mean     1.723574                       # Number of insts commited each cycle
system.cpu.commit.committed_per_cycle::stdev     2.557637                       # Number of insts commited each cycle
system.cpu.commit.committed_per_cycle::underflows            0      0.00%      0.00% # Number of insts commited each cycle
system.cpu.commit.committed_per_cycle::0    404098003     42.82%     42.82% # Number of insts commited each cycle
system.cpu.commit.committed_per_cycle::1    287759462     30.50%     73.32% # Number of insts commited each cycle
system.cpu.commit.committed_per_cycle::2     75166703      7.97%     81.28% # Number of insts commited each cycle
system.cpu.commit.committed_per_cycle::3     11145414      1.18%     82.47% # Number of insts commited each cycle
system.cpu.commit.committed_per_cycle::4     13565996      1.44%     83.90% # Number of insts commited each cycle
system.cpu.commit.committed_per_cycle::5      5429348      0.58%     84.48% # Number of insts commited each cycle
system.cpu.commit.committed_per_cycle::6     17082071      1.81%     86.29% # Number of insts commited each cycle
system.cpu.commit.committed_per_cycle::7     64045124      6.79%     93.08% # Number of insts commited each cycle
system.cpu.commit.committed_per_cycle::8     65332244      6.92%    100.00% # Number of insts commited each cycle
system.cpu.commit.committed_per_cycle::overflows            0      0.00%    100.00% # Number of insts commited each cycle
system.cpu.commit.committed_per_cycle::min_value            0                       # Number of insts commited each cycle
system.cpu.commit.committed_per_cycle::max_value            8                       # Number of insts commited each cycle
system.cpu.commit.committed_per_cycle::total    943624365                       # Number of insts commited each cycle
system.cpu.commit.committedInsts           1625584010                       # Number of instructions committed
system.cpu.commit.committedOps             1626406080                       # Number of ops (including micro ops) committed
system.cpu.commit.swp_count                         0                       # Number of s/w prefetches committed
system.cpu.commit.refs                      675859729                       # Number of memory references committed
system.cpu.commit.loads                     585023363                       # Number of loads committed
system.cpu.commit.membars                         416                       # Number of memory barriers committed
system.cpu.commit.branches                  178676239                       # Number of branches committed
system.cpu.commit.vec_insts                      9648                       # Number of committed Vector instructions.
system.cpu.commit.fp_insts                          0                       # Number of committed floating point instructions.
system.cpu.commit.int_insts                1451808722                       # Number of committed integer instructions.
system.cpu.commit.function_calls              2135792                       # Number of function calls committed.
system.cpu.commit.op_class_0::No_OpClass          402      0.00%      0.00% # Class of committed instruction
system.cpu.commit.op_class_0::IntAlu        950540108     58.44%     58.44% # Class of committed instruction
system.cpu.commit.op_class_0::IntMult             604      0.00%     58.44% # Class of committed instruction
system.cpu.commit.op_class_0::IntDiv                3      0.00%     58.44% # Class of committed instruction
system.cpu.commit.op_class_0::FloatAdd              0      0.00%     58.44% # Class of committed instruction
system.cpu.commit.op_class_0::FloatCmp              0      0.00%     58.44% # Class of committed instruction
system.cpu.commit.op_class_0::FloatCvt              0      0.00%     58.44% # Class of committed instruction
system.cpu.commit.op_class_0::FloatMult             0      0.00%     58.44% # Class of committed instruction
system.cpu.commit.op_class_0::FloatMultAcc            0      0.00%     58.44% # Class of committed instruction
system.cpu.commit.op_class_0::FloatDiv              0      0.00%     58.44% # Class of committed instruction
system.cpu.commit.op_class_0::FloatMisc             0      0.00%     58.44% # Class of committed instruction
system.cpu.commit.op_class_0::FloatSqrt             0      0.00%     58.44% # Class of committed instruction
system.cpu.commit.op_class_0::SimdAdd             811      0.00%     58.44% # Class of committed instruction
system.cpu.commit.op_class_0::SimdAddAcc            0      0.00%     58.44% # Class of committed instruction
system.cpu.commit.op_class_0::SimdAlu            1608      0.00%     58.44% # Class of committed instruction
system.cpu.commit.op_class_0::SimdCmp            1608      0.00%     58.44% # Class of committed instruction
system.cpu.commit.op_class_0::SimdCvt               0      0.00%     58.44% # Class of committed instruction
system.cpu.commit.op_class_0::SimdMisc           1207      0.00%     58.44% # Class of committed instruction
system.cpu.commit.op_class_0::SimdMult              0      0.00%     58.44% # Class of committed instruction
system.cpu.commit.op_class_0::SimdMultAcc            0      0.00%     58.44% # Class of committed instruction
system.cpu.commit.op_class_0::SimdShift             0      0.00%     58.44% # Class of committed instruction
system.cpu.commit.op_class_0::SimdShiftAcc            0      0.00%     58.44% # Class of committed instruction
system.cpu.commit.op_class_0::SimdSqrt              0      0.00%     58.44% # Class of committed instruction
system.cpu.commit.op_class_0::SimdFloatAdd            0      0.00%     58.44% # Class of committed instruction
system.cpu.commit.op_class_0::SimdFloatAlu            0      0.00%     58.44% # Class of committed instruction
system.cpu.commit.op_class_0::SimdFloatCmp            0      0.00%     58.44% # Class of committed instruction
system.cpu.commit.op_class_0::SimdFloatCvt            0      0.00%     58.44% # Class of committed instruction
system.cpu.commit.op_class_0::SimdFloatDiv            0      0.00%     58.44% # Class of committed instruction
system.cpu.commit.op_class_0::SimdFloatMisc            0      0.00%     58.44% # Class of committed instruction
system.cpu.commit.op_class_0::SimdFloatMult            0      0.00%     58.44% # Class of committed instruction
[...]
system.l2.ReadCleanReq_miss_rate::total      0.776817                       # miss rate for ReadCleanReq accesses
system.l2.ReadSharedReq_miss_rate::cpu.data     0.952381                       # miss rate for ReadSharedReq accesses
system.l2.ReadSharedReq_miss_rate::total     0.952381                       # miss rate for ReadSharedReq accesses
system.l2.demand_miss_rate::cpu.inst         0.776817                       # miss rate for demand accesses
system.l2.demand_miss_rate::cpu.data         0.208545                       # miss rate for demand accesses
system.l2.demand_miss_rate::total            0.418962                       # miss rate for demand accesses
system.l2.overall_miss_rate::cpu.inst        0.776817                       # miss rate for overall accesses
system.l2.overall_miss_rate::cpu.data        0.208545                       # miss rate for overall accesses
system.l2.overall_miss_rate::total           0.418962                       # miss rate for overall accesses
system.l2.ReadExReq_avg_miss_latency::cpu.data 118876.190476                       # average ReadExReq miss latency
system.l2.ReadExReq_avg_miss_latency::total 118876.190476                       # average ReadExReq miss latency
system.l2.ReadCleanReq_avg_miss_latency::cpu.inst 80721.603563                       # average ReadCleanReq miss latency
system.l2.ReadCleanReq_avg_miss_latency::total 80721.603563                       # average ReadCleanReq miss latency
system.l2.ReadSharedReq_avg_miss_latency::cpu.data        86975                       # average ReadSharedReq miss latency
system.l2.ReadSharedReq_avg_miss_latency::total        86975                       # average ReadSharedReq miss latency
system.l2.demand_avg_miss_latency::cpu.inst 80721.603563                       # average overall miss latency
system.l2.demand_avg_miss_latency::cpu.data 103314.634146                       # average overall miss latency
system.l2.demand_avg_miss_latency::total 87803.516820                       # average overall miss latency
system.l2.overall_avg_miss_latency::cpu.inst 80721.603563                       # average overall miss latency
system.l2.overall_avg_miss_latency::cpu.data 103314.634146                       # average overall miss latency
system.l2.overall_avg_miss_latency::total 87803.516820                       # average overall miss latency
system.l2.blocked_cycles::no_mshrs                  0                       # number of cycles access was blocked
system.l2.blocked_cycles::no_targets                0                       # number of cycles access was blocked
system.l2.blocked::no_mshrs                         0                       # number of cycles access was blocked
system.l2.blocked::no_targets                       0                       # number of cycles access was blocked
system.l2.avg_blocked_cycles::no_mshrs            nan                       # average number of cycles each access was blocked
system.l2.avg_blocked_cycles::no_targets          nan                       # average number of cycles each access was blocked
system.l2.ReadExReq_mshr_hits::cpu.data             1                       # number of ReadExReq MSHR hits
system.l2.ReadExReq_mshr_hits::total                1                       # number of ReadExReq MSHR hits
system.l2.ReadSharedReq_mshr_hits::cpu.data            5                       # number of ReadSharedReq MSHR hits
system.l2.ReadSharedReq_mshr_hits::total            5                       # number of ReadSharedReq MSHR hits
system.l2.demand_mshr_hits::cpu.data                6                       # number of demand (read+write) MSHR hits
system.l2.demand_mshr_hits::total                   6                       # number of demand (read+write) MSHR hits
system.l2.overall_mshr_hits::cpu.data               6                       # number of overall MSHR hits
system.l2.overall_mshr_hits::total                  6                       # number of overall MSHR hits
system.l2.HardPFReq_mshr_misses::l2.prefetcher          531                       # number of HardPFReq MSHR misses
system.l2.HardPFReq_mshr_misses::total            531                       # number of HardPFReq MSHR misses
system.l2.ReadExReq_mshr_misses::cpu.data          104                       # number of ReadExReq MSHR misses
system.l2.ReadExReq_mshr_misses::total            104                       # number of ReadExReq MSHR misses
system.l2.ReadCleanReq_mshr_misses::cpu.inst          449                       # number of ReadCleanReq MSHR misses
system.l2.ReadCleanReq_mshr_misses::total          449                       # number of ReadCleanReq MSHR misses
system.l2.ReadSharedReq_mshr_misses::cpu.data           95                       # number of ReadSharedReq MSHR misses
system.l2.ReadSharedReq_mshr_misses::total           95                       # number of ReadSharedReq MSHR misses
system.l2.demand_mshr_misses::cpu.inst            449                       # number of demand (read+write) MSHR misses
system.l2.demand_mshr_misses::cpu.data            199                       # number of demand (read+write) MSHR misses
system.l2.demand_mshr_misses::total               648                       # number of demand (read+write) MSHR misses
system.l2.overall_mshr_misses::cpu.inst           449                       # number of overall MSHR misses
system.l2.overall_mshr_misses::cpu.data           199                       # number of overall MSHR misses
system.l2.overall_mshr_misses::l2.prefetcher          531                       # number of overall MSHR misses
system.l2.overall_mshr_misses::total             1179                       # number of overall MSHR misses
system.l2.HardPFReq_mshr_miss_latency::l2.prefetcher     42603490                       # number of HardPFReq MSHR miss cycles
system.l2.HardPFReq_mshr_miss_latency::total     42603490                       # number of HardPFReq MSHR miss cycles
system.l2.ReadExReq_mshr_miss_latency::cpu.data     11843000                       # number of ReadExReq MSHR miss cycles
system.l2.ReadExReq_mshr_miss_latency::total     11843000                       # number of ReadExReq MSHR miss cycles
system.l2.ReadCleanReq_mshr_miss_latency::cpu.inst     33562000                       # number of ReadCleanReq MSHR miss cycles
system.l2.ReadCleanReq_mshr_miss_latency::total     33562000                       # number of ReadCleanReq MSHR miss cycles
system.l2.ReadSharedReq_mshr_miss_latency::cpu.data      7803000                       # number of ReadSharedReq MSHR miss cycles
system.l2.ReadSharedReq_mshr_miss_latency::total      7803000                       # number of ReadSharedReq MSHR miss cycles
system.l2.demand_mshr_miss_latency::cpu.inst     33562000                       # number of demand (read+write) MSHR miss cycles
system.l2.demand_mshr_miss_latency::cpu.data     19646000                       # number of demand (read+write) MSHR miss cycles
system.l2.demand_mshr_miss_latency::total     53208000                       # number of demand (read+write) MSHR miss cycles
system.l2.overall_mshr_miss_latency::cpu.inst     33562000                       # number of overall MSHR miss cycles
system.l2.overall_mshr_miss_latency::cpu.data     19646000                       # number of overall MSHR miss cycles
system.l2.overall_mshr_miss_latency::l2.prefetcher     42603490                       # number of overall MSHR miss cycles
system.l2.overall_mshr_miss_latency::total     95811490                       # number of overall MSHR miss cycles
system.l2.HardPFReq_mshr_miss_rate::l2.prefetcher          inf                       # mshr miss rate for HardPFReq accesses
system.l2.HardPFReq_mshr_miss_rate::total          inf                       # mshr miss rate for HardPFReq accesses
system.l2.ReadExReq_mshr_miss_rate::cpu.data     0.118451                       # mshr miss rate for ReadExReq accesses
system.l2.ReadExReq_mshr_miss_rate::total     0.118451                       # mshr miss rate for ReadExReq accesses
system.l2.ReadCleanReq_mshr_miss_rate::cpu.inst     0.776817                       # mshr miss rate for ReadCleanReq accesses
system.l2.ReadCleanReq_mshr_miss_rate::total     0.776817                       # mshr miss rate for ReadCleanReq accesses
system.l2.ReadSharedReq_mshr_miss_rate::cpu.data     0.904762                       # mshr miss rate for ReadSharedReq accesses
system.l2.ReadSharedReq_mshr_miss_rate::total     0.904762                       # mshr miss rate for ReadSharedReq accesses
system.l2.demand_mshr_miss_rate::cpu.inst     0.776817                       # mshr miss rate for demand accesses
system.l2.demand_mshr_miss_rate::cpu.data     0.202442                       # mshr miss rate for demand accesses
system.l2.demand_mshr_miss_rate::total       0.415119                       # mshr miss rate for demand accesses
system.l2.overall_mshr_miss_rate::cpu.inst     0.776817                       # mshr miss rate for overall accesses
system.l2.overall_mshr_miss_rate::cpu.data     0.202442                       # mshr miss rate for overall accesses
system.l2.overall_mshr_miss_rate::l2.prefetcher          inf                       # mshr miss rate for overall accesses
system.l2.overall_mshr_miss_rate::total      0.755285                       # mshr miss rate for overall accesses
system.l2.HardPFReq_avg_mshr_miss_latency::l2.prefetcher 80232.561205                       # average HardPFReq mshr miss latency
system.l2.HardPFReq_avg_mshr_miss_latency::total 80232.561205                       # average HardPFReq mshr miss latency
system.l2.ReadExReq_avg_mshr_miss_latency::cpu.data       113875                       # average ReadExReq mshr miss latency
system.l2.ReadExReq_avg_mshr_miss_latency::total       113875                       # average ReadExReq mshr miss latency
system.l2.ReadCleanReq_avg_mshr_miss_latency::cpu.inst 74748.329621                       # average ReadCleanReq mshr miss latency
system.l2.ReadCleanReq_avg_mshr_miss_latency::total 74748.329621                       # average ReadCleanReq mshr miss latency
system.l2.ReadSharedReq_avg_mshr_miss_latency::cpu.data 82136.842105                       # average ReadSharedReq mshr miss latency
system.l2.ReadSharedReq_avg_mshr_miss_latency::total 82136.842105                       # average ReadSharedReq mshr miss latency
system.l2.demand_avg_mshr_miss_latency::cpu.inst 74748.329621                       # average overall mshr miss latency
system.l2.demand_avg_mshr_miss_latency::cpu.data 98723.618090                       # average overall mshr miss latency
system.l2.demand_avg_mshr_miss_latency::total 82111.111111                       # average overall mshr miss latency
system.l2.overall_avg_mshr_miss_latency::cpu.inst 74748.329621                       # average overall mshr miss latency
system.l2.overall_avg_mshr_miss_latency::cpu.data 98723.618090                       # average overall mshr miss latency
system.l2.overall_avg_mshr_miss_latency::l2.prefetcher 80232.561205                       # average overall mshr miss latency
system.l2.overall_avg_mshr_miss_latency::total 81265.046650                       # average overall mshr miss latency
system.membus.snoop_filter.tot_requests          1158                       # Total number of requests made to the snoop filter.
system.membus.snoop_filter.hit_single_requests           12                       # Number of requests hitting in the snoop filter with a single holder of the requested data.
system.membus.snoop_filter.hit_multi_requests            0                       # Number of requests hitting in the snoop filter with multiple (>1) holders of the requested data.
system.membus.snoop_filter.tot_snoops               0                       # Total number of snoops made to the snoop filter.
system.membus.snoop_filter.hit_single_snoops            0                       # Number of snoops hitting in the snoop filter with a single holder of the requested data.
system.membus.snoop_filter.hit_multi_snoops            0                       # Number of snoops hitting in the snoop filter with multiple (>1) holders of the requested data.
system.membus.pwrStateResidencyTicks::UNDEFINED 491794498500                       # Cumulative time (in ticks) in various power states
system.membus.trans_dist::ReadResp               1052                       # Transaction distribution
system.membus.trans_dist::ReadExReq               104                       # Transaction distribution
system.membus.trans_dist::ReadExResp              104                       # Transaction distribution
system.membus.trans_dist::ReadSharedReq          1054                       # Transaction distribution
system.membus.pkt_count_system.l2.mem_side::system.mem_ctrls.port         2314                       # Packet count per connected master and slave (bytes)
system.membus.pkt_count::total                   2314                       # Packet count per connected master and slave (bytes)
system.membus.pkt_size_system.l2.mem_side::system.mem_ctrls.port        73984                       # Cumulative packet size per connected master and slave (bytes)
system.membus.pkt_size::total                   73984                       # Cumulative packet size per connected master and slave (bytes)
system.membus.snoops                                0                       # Total snoops (count)
system.membus.snoopTraffic                          0                       # Total snoop traffic (bytes)
system.membus.snoop_fanout::samples              1158                       # Request fanout histogram
system.membus.snoop_fanout::mean                    0                       # Request fanout histogram
system.membus.snoop_fanout::stdev                   0                       # Request fanout histogram
system.membus.snoop_fanout::underflows              0      0.00%      0.00% # Request fanout histogram
system.membus.snoop_fanout::0                    1158    100.00%    100.00% # Request fanout histogram
system.membus.snoop_fanout::1                       0      0.00%    100.00% # Request fanout histogram
system.membus.snoop_fanout::overflows               0      0.00%    100.00% # Request fanout histogram
system.membus.snoop_fanout::min_value               0                       # Request fanout histogram
system.membus.snoop_fanout::max_value               0                       # Request fanout histogram
system.membus.snoop_fanout::total                1158                       # Request fanout histogram
system.membus.reqLayer0.occupancy             1648574                       # Layer occupancy (ticks)
system.membus.reqLayer0.utilization               0.0                       # Layer utilization (%)
system.membus.respLayer1.occupancy            6084771                       # Layer occupancy (ticks)
system.membus.respLayer1.utilization              0.0                       # Layer utilization (%)
system.tol2bus.snoop_filter.tot_requests         2106                       # Total number of requests made to the snoop filter.
system.tol2bus.snoop_filter.hit_single_requests          555                       # Number of requests hitting in the snoop filter with a single holder of the requested data.
system.tol2bus.snoop_filter.hit_multi_requests            4                       # Number of requests hitting in the snoop filter with multiple (>1) holders of the requested data.
system.tol2bus.snoop_filter.tot_snoops             21                       # Total number of snoops made to the snoop filter.
system.tol2bus.snoop_filter.hit_single_snoops           21                       # Number of snoops hitting in the snoop filter with a single holder of the requested data.
system.tol2bus.snoop_filter.hit_multi_snoops            0                       # Number of snoops hitting in the snoop filter with multiple (>1) holders of the requested data.
system.tol2bus.pwrStateResidencyTicks::UNDEFINED 491794498500                       # Cumulative time (in ticks) in various power states
system.tol2bus.trans_dist::ReadResp               681                       # Transaction distribution
system.tol2bus.trans_dist::WritebackDirty          309                       # Transaction distribution
system.tol2bus.trans_dist::WritebackClean          236                       # Transaction distribution
system.tol2bus.trans_dist::HardPFReq              611                       # Transaction distribution
system.tol2bus.trans_dist::ReadExReq              878                       # Transaction distribution
system.tol2bus.trans_dist::ReadExResp             878                       # Transaction distribution
system.tol2bus.trans_dist::ReadCleanReq           578                       # Transaction distribution
system.tol2bus.trans_dist::ReadSharedReq          105                       # Transaction distribution
system.tol2bus.pkt_count_system.cpu.icache.mem_side::system.l2.cpu_side         1380                       # Packet count per connected master and slave (bytes)
system.tol2bus.pkt_count_system.cpu.dcache.mem_side::system.l2.cpu_side         2285                       # Packet count per connected master and slave (bytes)
system.tol2bus.pkt_count::total                  3665                       # Packet count per connected master and slave (bytes)
system.tol2bus.pkt_size_system.cpu.icache.mem_side::system.l2.cpu_side        51328                       # Cumulative packet size per connected master and slave (bytes)
system.tol2bus.pkt_size_system.cpu.dcache.mem_side::system.l2.cpu_side        83328                       # Cumulative packet size per connected master and slave (bytes)
system.tol2bus.pkt_size::total                 134656                       # Cumulative packet size per connected master and slave (bytes)
system.tol2bus.snoops                             611                       # Total snoops (count)
system.tol2bus.snoopTraffic                         0                       # Total snoop traffic (bytes)
system.tol2bus.snoop_fanout::samples             2172                       # Request fanout histogram
system.tol2bus.snoop_fanout::mean            0.016114                       # Request fanout histogram
system.tol2bus.snoop_fanout::stdev           0.125944                       # Request fanout histogram
system.tol2bus.snoop_fanout::underflows             0      0.00%      0.00% # Request fanout histogram
system.tol2bus.snoop_fanout::0                   2137     98.39%     98.39% # Request fanout histogram
system.tol2bus.snoop_fanout::1                     35      1.61%    100.00% # Request fanout histogram
system.tol2bus.snoop_fanout::2                      0      0.00%    100.00% # Request fanout histogram
system.tol2bus.snoop_fanout::3                      0      0.00%    100.00% # Request fanout histogram
system.tol2bus.snoop_fanout::4                      0      0.00%    100.00% # Request fanout histogram
system.tol2bus.snoop_fanout::overflows              0      0.00%    100.00% # Request fanout histogram
system.tol2bus.snoop_fanout::min_value              0                       # Request fanout histogram
system.tol2bus.snoop_fanout::max_value              1                       # Request fanout histogram
system.tol2bus.snoop_fanout::total               2172                       # Request fanout histogram
system.tol2bus.reqLayer0.occupancy            1598000                       # Layer occupancy (ticks)
system.tol2bus.reqLayer0.utilization              0.0                       # Layer utilization (%)
system.tol2bus.respLayer0.occupancy            864000                       # Layer occupancy (ticks)
system.tol2bus.respLayer0.utilization             0.0                       # Layer utilization (%)
system.tol2bus.respLayer1.occupancy           1475498                       # Layer occupancy (ticks)
system.tol2bus.respLayer1.utilization             0.0                       # Layer utilization (%)

---------- End Simulation Statistics   ----------
