
---------- Begin Simulation Statistics ----------
sim_seconds                                  0.007464                       # Number of seconds simulated
sim_ticks                                  7464174500                       # Number of ticks simulated
final_tick                                 7464174500                       # Number of ticks from beginning of simulation (restored from checkpoints and never reset)
sim_freq                                 1000000000000                       # Frequency of simulated ticks
host_inst_rate                                 498635                       # Simulator instruction rate (inst/s)
host_op_rate                                   498741                       # Simulator op (including micro ops) rate (op/s)
host_tick_rate                              146025171                       # Simulator tick rate (ticks/s)
host_mem_usage                                 672164                       # Number of bytes of host memory used
host_seconds                                    51.12                       # Real time elapsed on the host
sim_insts                                    25488059                       # Number of instructions simulated
sim_ops                                      25493471                       # Number of ops (including micro ops) simulated
system.voltage_domain.voltage                       1                       # Voltage in Volts
system.clk_domain.clock                          1000                       # Clock period in ticks
system.mem_ctrls.pwrStateResidencyTicks::UNDEFINED   7464174500                       # Cumulative time (in ticks) in various power states
system.mem_ctrls.bytes_read::cpu.inst           31936                       # Number of bytes read from this memory
system.mem_ctrls.bytes_read::cpu.data           13568                       # Number of bytes read from this memory
system.mem_ctrls.bytes_read::l2.prefetcher        42176                       # Number of bytes read from this memory
system.mem_ctrls.bytes_read::total              87680                       # Number of bytes read from this memory
system.mem_ctrls.bytes_inst_read::cpu.inst        31936                       # Number of instructions bytes read from this memory
system.mem_ctrls.bytes_inst_read::total         31936                       # Number of instructions bytes read from this memory
system.mem_ctrls.num_reads::cpu.inst              499                       # Number of read requests responded to by this memory
system.mem_ctrls.num_reads::cpu.data              212                       # Number of read requests responded to by this memory
system.mem_ctrls.num_reads::l2.prefetcher          659                       # Number of read requests responded to by this memory
system.mem_ctrls.num_reads::total                1370                       # Number of read requests responded to by this memory
system.mem_ctrls.bw_read::cpu.inst            4278571                       # Total read bandwidth from this memory (bytes/s)
system.mem_ctrls.bw_read::cpu.data            1817750                       # Total read bandwidth from this memory (bytes/s)
system.mem_ctrls.bw_read::l2.prefetcher       5650457                       # Total read bandwidth from this memory (bytes/s)
system.mem_ctrls.bw_read::total              11746778                       # Total read bandwidth from this memory (bytes/s)
system.mem_ctrls.bw_inst_read::cpu.inst       4278571                       # Instruction read bandwidth from this memory (bytes/s)
system.mem_ctrls.bw_inst_read::total          4278571                       # Instruction read bandwidth from this memory (bytes/s)
system.mem_ctrls.bw_total::cpu.inst           4278571                       # Total bandwidth to/from this memory (bytes/s)
system.mem_ctrls.bw_total::cpu.data           1817750                       # Total bandwidth to/from this memory (bytes/s)
system.mem_ctrls.bw_total::l2.prefetcher      5650457                       # Total bandwidth to/from this memory (bytes/s)
system.mem_ctrls.bw_total::total             11746778                       # Total bandwidth to/from this memory (bytes/s)
system.mem_ctrls.readReqs                        1371                       # Number of read requests accepted
system.mem_ctrls.writeReqs                          0                       # Number of write requests accepted
system.mem_ctrls.readBursts                      1371                       # Number of DRAM read bursts, including those serviced by the write queue
system.mem_ctrls.writeBursts                        0                       # Number of DRAM write bursts, including those merged in the write queue
system.mem_ctrls.bytesReadDRAM                  87744                       # Total number of bytes read from DRAM
system.mem_ctrls.bytesReadWrQ                       0                       # Total number of bytes read from write queue
system.mem_ctrls.bytesWritten                       0                       # Total number of bytes written to DRAM
system.mem_ctrls.bytesReadSys                   87744                       # Total read bytes from the system interface side
system.mem_ctrls.bytesWrittenSys                    0                       # Total written bytes from the system interface side
system.mem_ctrls.servicedByWrQ                      0                       # Number of DRAM read bursts serviced by the write queue
system.mem_ctrls.mergedWrBursts                     0                       # Number of DRAM write bursts merged with an existing one
system.mem_ctrls.neitherReadNorWriteReqs            0                       # Number of requests that are neither read nor write
system.mem_ctrls.perBankRdBursts::0               115                       # Per bank write bursts
system.mem_ctrls.perBankRdBursts::1                15                       # Per bank write bursts
system.mem_ctrls.perBankRdBursts::2                32                       # Per bank write bursts
system.mem_ctrls.perBankRdBursts::3                58                       # Per bank write bursts
system.mem_ctrls.perBankRdBursts::4               183                       # Per bank write bursts
system.mem_ctrls.perBankRdBursts::5               217                       # Per bank write bursts
system.mem_ctrls.perBankRdBursts::6               150                       # Per bank write bursts
system.mem_ctrls.perBankRdBursts::7                75                       # Per bank write bursts
system.mem_ctrls.perBankRdBursts::8                22                       # Per bank write bursts
system.mem_ctrls.perBankRdBursts::9                29                       # Per bank write bursts
system.mem_ctrls.perBankRdBursts::10               20                       # Per bank write bursts
system.mem_ctrls.perBankRdBursts::11               12                       # Per bank write bursts
system.mem_ctrls.perBankRdBursts::12               54                       # Per bank write bursts
system.mem_ctrls.perBankRdBursts::13               44                       # Per bank write bursts
system.mem_ctrls.perBankRdBursts::14              149                       # Per bank write bursts
system.mem_ctrls.perBankRdBursts::15              196                       # Per bank write bursts
system.mem_ctrls.perBankWrBursts::0                 0                       # Per bank write bursts
system.mem_ctrls.perBankWrBursts::1                 0                       # Per bank write bursts
system.mem_ctrls.perBankWrBursts::2                 0                       # Per bank write bursts
system.mem_ctrls.perBankWrBursts::3                 0                       # Per bank write bursts
system.mem_ctrls.perBankWrBursts::4                 0                       # Per bank write bursts
system.mem_ctrls.perBankWrBursts::5                 0                       # Per bank write bursts
system.mem_ctrls.perBankWrBursts::6                 0                       # Per bank write bursts
system.mem_ctrls.perBankWrBursts::7                 0                       # Per bank write bursts
system.mem_ctrls.perBankWrBursts::8                 0                       # Per bank write bursts
system.mem_ctrls.perBankWrBursts::9                 0                       # Per bank write bursts
system.mem_ctrls.perBankWrBursts::10                0                       # Per bank write bursts
system.mem_ctrls.perBankWrBursts::11                0                       # Per bank write bursts
system.mem_ctrls.perBankWrBursts::12                0                       # Per bank write bursts
system.mem_ctrls.perBankWrBursts::13                0                       # Per bank write bursts
system.mem_ctrls.perBankWrBursts::14                0                       # Per bank write bursts
system.mem_ctrls.perBankWrBursts::15                0                       # Per bank write bursts
system.mem_ctrls.numRdRetry                         0                       # Number of times read queue was full causing retry
system.mem_ctrls.numWrRetry                         0                       # Number of times write queue was full causing retry
system.mem_ctrls.totGap                    7464165500                       # Total gap between requests
system.mem_ctrls.readPktSize::0                     0                       # Read request sizes (log2)
system.mem_ctrls.readPktSize::1                     0                       # Read request sizes (log2)
system.mem_ctrls.readPktSize::2                     0                       # Read request sizes (log2)
system.mem_ctrls.readPktSize::3                     0                       # Read request sizes (log2)
system.mem_ctrls.readPktSize::4                     0                       # Read request sizes (log2)
system.mem_ctrls.readPktSize::5                     0                       # Read request sizes (log2)
system.mem_ctrls.readPktSize::6                  1371                       # Read request sizes (log2)
system.mem_ctrls.writePktSize::0                    0                       # Write request sizes (log2)
system.mem_ctrls.writePktSize::1                    0                       # Write request sizes (log2)
system.mem_ctrls.writePktSize::2                    0                       # Write request sizes (log2)
system.mem_ctrls.writePktSize::3                    0                       # Write request sizes (log2)
system.mem_ctrls.writePktSize::4                    0                       # Write request sizes (log2)
system.mem_ctrls.writePktSize::5                    0                       # Write request sizes (log2)
system.mem_ctrls.writePktSize::6                    0                       # Write request sizes (log2)
system.mem_ctrls.rdQLenPdf::0                     924                       # What read queue length does an incoming req see
system.mem_ctrls.rdQLenPdf::1                     231                       # What read queue length does an incoming req see
system.mem_ctrls.rdQLenPdf::2                      96                       # What read queue length does an incoming req see
system.mem_ctrls.rdQLenPdf::3                      31                       # What read queue length does an incoming req see
system.mem_ctrls.rdQLenPdf::4                      20                       # What read queue length does an incoming req see
system.mem_ctrls.rdQLenPdf::5                      15                       # What read queue length does an incoming req see
system.mem_ctrls.rdQLenPdf::6                      17                       # What read queue length does an incoming req see
system.mem_ctrls.rdQLenPdf::7                      16                       # What read queue length does an incoming req see
system.mem_ctrls.rdQLenPdf::8                      15                       # What read queue length does an incoming req see
system.mem_ctrls.rdQLenPdf::9                       3                       # What read queue length does an incoming req see
system.mem_ctrls.rdQLenPdf::10                      1                       # What read queue length does an incoming req see
system.mem_ctrls.rdQLenPdf::11                      1                       # What read queue length does an incoming req see
system.mem_ctrls.rdQLenPdf::12                      1                       # What read queue length does an incoming req see
system.mem_ctrls.rdQLenPdf::13                      0                       # What read queue length does an incoming req see
system.mem_ctrls.rdQLenPdf::14                      0                       # What read queue length does an incoming req see
system.mem_ctrls.rdQLenPdf::15                      0                       # What read queue length does an incoming req see
system.mem_ctrls.rdQLenPdf::16                      0                       # What read queue length does an incoming req see
system.mem_ctrls.rdQLenPdf::17                      0                       # What read queue length does an incoming req see
system.mem_ctrls.rdQLenPdf::18                      0                       # What read queue length does an incoming req see
system.mem_ctrls.rdQLenPdf::19                      0                       # What read queue length does an incoming req see
system.mem_ctrls.rdQLenPdf::20                      0                       # What read queue length does an incoming req see
system.mem_ctrls.rdQLenPdf::21                      0                       # What read queue length does an incoming req see
system.mem_ctrls.rdQLenPdf::22                      0                       # What read queue length does an incoming req see
system.mem_ctrls.rdQLenPdf::23                      0                       # What read queue length does an incoming req see
system.mem_ctrls.rdQLenPdf::24                      0                       # What read queue length does an incoming req see
system.mem_ctrls.rdQLenPdf::25                      0                       # What read queue length does an incoming req see
system.mem_ctrls.rdQLenPdf::26                      0                       # What read queue length does an incoming req see
system.mem_ctrls.rdQLenPdf::27                      0                       # What read queue length does an incoming req see
system.mem_ctrls.rdQLenPdf::28                      0                       # What read queue length does an incoming req see
system.mem_ctrls.rdQLenPdf::29                      0                       # What read queue length does an incoming req see
system.mem_ctrls.rdQLenPdf::30                      0                       # What read queue length does an incoming req see
system.mem_ctrls.rdQLenPdf::31                      0                       # What read queue length does an incoming req see
system.mem_ctrls.wrQLenPdf::0                       0                       # What write queue length does an incoming req see
system.mem_ctrls.wrQLenPdf::1                       0                       # What write queue length does an incoming req see
system.mem_ctrls.wrQLenPdf::2                       0                       # What write queue length does an incoming req see
system.mem_ctrls.wrQLenPdf::3                       0                       # What write queue length does an incoming req see
system.mem_ctrls.wrQLenPdf::4                       0                       # What write queue length does an incoming req see
system.mem_ctrls.wrQLenPdf::5                       0                       # What write queue length does an incoming req see
system.mem_ctrls.wrQLenPdf::6                       0                       # What write queue length does an incoming req see
system.mem_ctrls.wrQLenPdf::7                       0                       # What write queue length does an incoming req see
system.mem_ctrls.wrQLenPdf::8                       0                       # What write queue length does an incoming req see
system.mem_ctrls.wrQLenPdf::9                       0                       # What write queue length does an incoming req see
system.mem_ctrls.wrQLenPdf::10                      0                       # What write queue length does an incoming req see
system.mem_ctrls.wrQLenPdf::11                      0                       # What write queue length does an incoming req see
system.mem_ctrls.wrQLenPdf::12                      0                       # What write queue length does an incoming req see
system.mem_ctrls.wrQLenPdf::13                      0                       # What write queue length does an incoming req see
system.mem_ctrls.wrQLenPdf::14                      0                       # What write queue length does an incoming req see
system.mem_ctrls.wrQLenPdf::15                      0                       # What write queue length does an incoming req see
system.mem_ctrls.wrQLenPdf::16                      0                       # What write queue length does an incoming req see
system.mem_ctrls.wrQLenPdf::17                      0                       # What write queue length does an incoming req see
system.mem_ctrls.wrQLenPdf::18                      0                       # What write queue length does an incoming req see
system.mem_ctrls.wrQLenPdf::19                      0                       # What write queue length does an incoming req see
system.mem_ctrls.wrQLenPdf::20                      0                       # What write queue length does an incoming req see
system.mem_ctrls.wrQLenPdf::21                      0                       # What write queue length does an incoming req see
system.mem_ctrls.wrQLenPdf::22                      0                       # What write queue length does an incoming req see
system.mem_ctrls.wrQLenPdf::23                      0                       # What write queue length does an incoming req see
system.mem_ctrls.wrQLenPdf::24                      0                       # What write queue length does an incoming req see
system.mem_ctrls.wrQLenPdf::25                      0                       # What write queue length does an incoming req see
system.mem_ctrls.wrQLenPdf::26                      0                       # What write queue length does an incoming req see
system.mem_ctrls.wrQLenPdf::27                      0                       # What write queue length does an incoming req see
system.mem_ctrls.wrQLenPdf::28                      0                       # What write queue length does an incoming req see
system.mem_ctrls.wrQLenPdf::29                      0                       # What write queue length does an incoming req see
system.mem_ctrls.wrQLenPdf::30                      0                       # What write queue length does an incoming req see
system.mem_ctrls.wrQLenPdf::31                      0                       # What write queue length does an incoming req see
system.mem_ctrls.wrQLenPdf::32                      0                       # What write queue length does an incoming req see
system.mem_ctrls.wrQLenPdf::33                      0                       # What write queue length does an incoming req see
system.mem_ctrls.wrQLenPdf::34                      0                       # What write queue length does an incoming req see
system.mem_ctrls.wrQLenPdf::35                      0                       # What write queue length does an incoming req see
system.mem_ctrls.wrQLenPdf::36                      0                       # What write queue length does an incoming req see
system.mem_ctrls.wrQLenPdf::37                      0                       # What write queue length does an incoming req see
system.mem_ctrls.wrQLenPdf::38                      0                       # What write queue length does an incoming req see
system.mem_ctrls.wrQLenPdf::39                      0                       # What write queue length does an incoming req see
system.mem_ctrls.wrQLenPdf::40                      0                       # What write queue length does an incoming req see
system.mem_ctrls.wrQLenPdf::41                      0                       # What write queue length does an incoming req see
system.mem_ctrls.wrQLenPdf::42                      0                       # What write queue length does an incoming req see
system.mem_ctrls.wrQLenPdf::43                      0                       # What write queue length does an incoming req see
system.mem_ctrls.wrQLenPdf::44                      0                       # What write queue length does an incoming req see
system.mem_ctrls.wrQLenPdf::45                      0                       # What write queue length does an incoming req see
system.mem_ctrls.wrQLenPdf::46                      0                       # What write queue length does an incoming req see
system.mem_ctrls.wrQLenPdf::47                      0                       # What write queue length does an incoming req see
system.mem_ctrls.wrQLenPdf::48                      0                       # What write queue length does an incoming req see
system.mem_ctrls.wrQLenPdf::49                      0                       # What write queue length does an incoming req see
system.mem_ctrls.wrQLenPdf::50                      0                       # What write queue length does an incoming req see
system.mem_ctrls.wrQLenPdf::51                      0                       # What write queue length does an incoming req see
system.mem_ctrls.wrQLenPdf::52                      0                       # What write queue length does an incoming req see
system.mem_ctrls.wrQLenPdf::53                      0                       # What write queue length does an incoming req see
system.mem_ctrls.wrQLenPdf::54                      0                       # What write queue length does an incoming req see
system.mem_ctrls.wrQLenPdf::55                      0                       # What write queue length does an incoming req see
system.mem_ctrls.wrQLenPdf::56                      0                       # What write queue length does an incoming req see
system.mem_ctrls.wrQLenPdf::57                      0                       # What write queue length does an incoming req see
system.mem_ctrls.wrQLenPdf::58                      0                       # What write queue length does an incoming req see
system.mem_ctrls.wrQLenPdf::59                      0                       # What write queue length does an incoming req see
system.mem_ctrls.wrQLenPdf::60                      0                       # What write queue length does an incoming req see
system.mem_ctrls.wrQLenPdf::61                      0                       # What write queue length does an incoming req see
system.mem_ctrls.wrQLenPdf::62                      0                       # What write queue length does an incoming req see
system.mem_ctrls.wrQLenPdf::63                      0                       # What write queue length does an incoming req see
system.mem_ctrls.bytesPerActivate::samples          272                       # Bytes accessed per row activation
system.mem_ctrls.bytesPerActivate::mean    311.058824                       # Bytes accessed per row activation
system.mem_ctrls.bytesPerActivate::gmean   197.842804                       # Bytes accessed per row activation
system.mem_ctrls.bytesPerActivate::stdev   322.439497                       # Bytes accessed per row activation
system.mem_ctrls.bytesPerActivate::0-127           58     21.32%     21.32% # Bytes accessed per row activation
system.mem_ctrls.bytesPerActivate::128-255          122     44.85%     66.18% # Bytes accessed per row activation
system.mem_ctrls.bytesPerActivate::256-383           23      8.46%     74.63% # Bytes accessed per row activation
system.mem_ctrls.bytesPerActivate::384-511            9      3.31%     77.94% # Bytes accessed per row activation
system.mem_ctrls.bytesPerActivate::512-639            9      3.31%     81.25% # Bytes accessed per row activation
system.mem_ctrls.bytesPerActivate::640-767            9      3.31%     84.56% # Bytes accessed per row activation
system.mem_ctrls.bytesPerActivate::768-895            5      1.84%     86.40% # Bytes accessed per row activation
system.mem_ctrls.bytesPerActivate::896-1023            3      1.10%     87.50% # Bytes accessed per row activation
system.mem_ctrls.bytesPerActivate::1024-1151           34     12.50%    100.00% # Bytes accessed per row activation
system.mem_ctrls.bytesPerActivate::total          272                       # Bytes accessed per row activation
system.mem_ctrls.totQLat                     42596893                       # Total ticks spent queuing
system.mem_ctrls.totMemAccLat                68303143                       # Total ticks spent from burst creation until serviced by the DRAM
system.mem_ctrls.totBusLat                    6855000                       # Total ticks spent in databus transfers
system.mem_ctrls.avgQLat                     31069.94                       # Average queueing delay per DRAM burst
system.mem_ctrls.avgBusLat                    5000.00                       # Average bus latency per DRAM burst
system.mem_ctrls.avgMemAccLat                49819.94                       # Average memory access latency per DRAM burst
system.mem_ctrls.avgRdBW                        11.76                       # Average DRAM read bandwidth in MiByte/s
system.mem_ctrls.avgWrBW                         0.00                       # Average achieved write bandwidth in MiByte/s
system.mem_ctrls.avgRdBWSys                     11.76                       # Average system read bandwidth in MiByte/s
system.mem_ctrls.avgWrBWSys                      0.00                       # Average system write bandwidth in MiByte/s
system.mem_ctrls.peakBW                      12800.00                       # Theoretical peak bandwidth in MiByte/s
system.mem_ctrls.busUtil                         0.09                       # Data bus utilization in percentage
system.mem_ctrls.busUtilRead                     0.09                       # Data bus utilization in percentage for reads
system.mem_ctrls.busUtilWrite                    0.00                       # Data bus utilization in percentage for writes
system.mem_ctrls.avgRdQLen                       1.32                       # Average read queue length when enqueuing
system.mem_ctrls.avgWrQLen                       0.00                       # Average write queue length when enqueuing
system.mem_ctrls.readRowHits                     1089                       # Number of row buffer hits during reads
system.mem_ctrls.writeRowHits                       0                       # Number of row buffer hits during writes
system.mem_ctrls.readRowHitRate                 79.43                       # Row buffer hit rate for reads
system.mem_ctrls.writeRowHitRate                  nan                       # Row buffer hit rate for writes
system.mem_ctrls.avgGap                    5444322.03                       # Average gap between requests
system.mem_ctrls.pageHitRate                    79.43                       # Row buffer hit rate, read and write combined
system.mem_ctrls_0.actEnergy                   863940                       # Energy for activate commands per rank (pJ)
system.mem_ctrls_0.preEnergy                   440220                       # Energy for precharge commands per rank (pJ)
system.mem_ctrls_0.readEnergy                 6033300                       # Energy for read commands per rank (pJ)
system.mem_ctrls_0.writeEnergy                      0                       # Energy for write commands per rank (pJ)
system.mem_ctrls_0.refreshEnergy         19053840.000000                       # Energy for refresh commands per rank (pJ)
system.mem_ctrls_0.actBackEnergy             12415740                       # Energy for active background per rank (pJ)
system.mem_ctrls_0.preBackEnergy              1200960                       # Energy for precharge background per rank (pJ)
system.mem_ctrls_0.actPowerDownEnergy        49629900                       # Energy for active power-down per rank (pJ)
system.mem_ctrls_0.prePowerDownEnergy        21300000                       # Energy for precharge power-down per rank (pJ)
system.mem_ctrls_0.selfRefreshEnergy       1748548980                       # Energy for self refresh per rank (pJ)
system.mem_ctrls_0.totalEnergy             1859486880                       # Total energy per rank (pJ)
system.mem_ctrls_0.averagePower            249.121555                       # Core power per rank (mW)
system.mem_ctrls_0.totalIdleTime           7433753243                       # Total Idle time Per DRAM Rank
system.mem_ctrls_0.memoryStateTime::IDLE      2065000                       # Time in different power states
system.mem_ctrls_0.memoryStateTime::REF       8102000                       # Time in different power states
system.mem_ctrls_0.memoryStateTime::SREF   7269513000                       # Time in different power states
system.mem_ctrls_0.memoryStateTime::PRE_PDN     55468750                       # Time in different power states
system.mem_ctrls_0.memoryStateTime::ACT      20177257                       # Time in different power states
system.mem_ctrls_0.memoryStateTime::ACT_PDN    108848493                       # Time in different power states
system.mem_ctrls_1.actEnergy                  1149540                       # Energy for activate commands per rank (pJ)
system.mem_ctrls_1.preEnergy                   592020                       # Energy for precharge commands per rank (pJ)
system.mem_ctrls_1.readEnergy                 3748500                       # Energy for read commands per rank (pJ)
system.mem_ctrls_1.writeEnergy                      0                       # Energy for write commands per rank (pJ)
system.mem_ctrls_1.refreshEnergy         59005440.000000                       # Energy for refresh commands per rank (pJ)
system.mem_ctrls_1.actBackEnergy             16811010                       # Energy for active background per rank (pJ)
system.mem_ctrls_1.preBackEnergy              1817280                       # Energy for precharge background per rank (pJ)
system.mem_ctrls_1.actPowerDownEnergy       229224360                       # Energy for active power-down per rank (pJ)
system.mem_ctrls_1.prePowerDownEnergy        62541600                       # Energy for precharge power-down per rank (pJ)
system.mem_ctrls_1.selfRefreshEnergy       1624998840                       # Energy for self refresh per rank (pJ)
system.mem_ctrls_1.totalEnergy             1999888590                       # Total energy per rank (pJ)
system.mem_ctrls_1.averagePower            267.931632                       # Core power per rank (mW)
system.mem_ctrls_1.totalIdleTime           7422533000                       # Total Idle time Per DRAM Rank
system.mem_ctrls_1.memoryStateTime::IDLE      2185000                       # Time in different power states
system.mem_ctrls_1.memoryStateTime::REF      24996000                       # Time in different power states
system.mem_ctrls_1.memoryStateTime::SREF   6757021500                       # Time in different power states
system.mem_ctrls_1.memoryStateTime::PRE_PDN    162838511                       # Time in different power states
system.mem_ctrls_1.memoryStateTime::ACT      14460500                       # Time in different power states
system.mem_ctrls_1.memoryStateTime::ACT_PDN    502672989                       # Time in different power states
system.pwrStateResidencyTicks::UNDEFINED   7464174500                       # Cumulative time (in ticks) in various power states
system.cpu.branchPred.lookups                  850565                       # Number of BP lookups
system.cpu.branchPred.condPredicted            731089                       # Number of conditional branches predicted
system.cpu.branchPred.condIncorrect             18310                       # Number of conditional branches incorrect
system.cpu.branchPred.BTBLookups               799892                       # Number of BTB lookups
system.cpu.branchPred.BTBHits                  796310                       # Number of BTB hits
system.cpu.branchPred.BTBCorrect                    0                       # Number of correct BTB predictions (this stat may not work properly.
system.cpu.branchPred.BTBHitPct             99.552190                       # BTB Hit Percentage
system.cpu.branchPred.usedRAS                   49679                       # Number of times the RAS was used to get a target.
system.cpu.branchPred.RASInCorrect                  1                       # Number of incorrect RAS predictions.
system.cpu.branchPred.indirectLookups             138                       # Number of indirect predictor lookups.
system.cpu.branchPred.indirectHits                 19                       # Number of indirect target hits.
system.cpu.branchPred.indirectMisses              119                       # Number of indirect misses.
system.cpu.branchPredindirectMispredicted           50                       # Number of mispredicted indirect branches.
system.cpu.branchPred.atLeastOneCorrectExpert          597                       # Number of mispredicts where there was at least one correct not-selected scheme.
system.cpu_voltage_domain.voltage                   1                       # Voltage in Volts
system.cpu_clk_domain.clock                       500                       # Clock period in ticks
system.cpu.dstage2_mmu.stage2_tlb.walker.pwrStateResidencyTicks::UNDEFINED   7464174500                       # Cumulative time (in ticks) in various power states
system.cpu.dstage2_mmu.stage2_tlb.walker.walks            0                       # Table walker walks requested
system.cpu.dstage2_mmu.stage2_tlb.walker.walkRequestOrigin_Requested::Data            0                       # Table walker requests started/completed, data/inst
system.cpu.dstage2_mmu.stage2_tlb.walker.walkRequestOrigin_Requested::Inst            0                       # Table walker requests started/completed, data/inst
system.cpu.dstage2_mmu.stage2_tlb.walker.walkRequestOrigin_Requested::total            0                       # Table walker requests started/completed, data/inst
system.cpu.dstage2_mmu.stage2_tlb.walker.walkRequestOrigin_Completed::Data            0                       # Table walker requests started/completed, data/inst
system.cpu.dstage2_mmu.stage2_tlb.walker.walkRequestOrigin_Completed::Inst            0                       # Table walker requests started/completed, data/inst
system.cpu.dstage2_mmu.stage2_tlb.walker.walkRequestOrigin_Completed::total            0                       # Table walker requests started/completed, data/inst
system.cpu.dstage2_mmu.stage2_tlb.walker.walkRequestOrigin::total            0                       # Table walker requests started/completed, data/inst
system.cpu.dstage2_mmu.stage2_tlb.inst_hits            0                       # ITB inst hits
system.cpu.dstage2_mmu.stage2_tlb.inst_misses            0                       # ITB inst misses
system.cpu.dstage2_mmu.stage2_tlb.read_hits            0                       # DTB read hits
system.cpu.dstage2_mmu.stage2_tlb.read_misses            0                       # DTB read misses
system.cpu.dstage2_mmu.stage2_tlb.write_hits            0                       # DTB write hits
system.cpu.dstage2_mmu.stage2_tlb.write_misses            0                       # DTB write misses
system.cpu.dstage2_mmu.stage2_tlb.flush_tlb            0                       # Number of times complete TLB was flushed
system.cpu.dstage2_mmu.stage2_tlb.flush_tlb_mva            0                       # Number of times TLB was flushed by MVA
system.cpu.dstage2_mmu.stage2_tlb.flush_tlb_mva_asid            0                       # Number of times TLB was flushed by MVA & ASID
system.cpu.dstage2_mmu.stage2_tlb.flush_tlb_asid            0                       # Number of times TLB was flushed by ASID
system.cpu.dstage2_mmu.stage2_tlb.flush_entries            0                       # Number of entries that have been flushed from TLB
system.cpu.dstage2_mmu.stage2_tlb.align_faults            0                       # Number of TLB faults due to alignment restrictions
system.cpu.dstage2_mmu.stage2_tlb.prefetch_faults            0                       # Number of TLB faults due to prefetch
system.cpu.dstage2_mmu.stage2_tlb.domain_faults            0                       # Number of TLB faults due to domain restrictions
system.cpu.dstage2_mmu.stage2_tlb.perms_faults            0                       # Number of TLB faults due to permissions restrictions
system.cpu.dstage2_mmu.stage2_tlb.read_accesses            0                       # DTB read accesses
system.cpu.dstage2_mmu.stage2_tlb.write_accesses            0                       # DTB write accesses
system.cpu.dstage2_mmu.stage2_tlb.inst_accesses            0                       # ITB inst accesses
system.cpu.dstage2_mmu.stage2_tlb.hits              0                       # DTB hits
system.cpu.dstage2_mmu.stage2_tlb.misses            0                       # DTB misses
system.cpu.dstage2_mmu.stage2_tlb.accesses            0                       # DTB accesses
system.cpu.dtb.walker.pwrStateResidencyTicks::UNDEFINED   7464174500                       # Cumulative time (in ticks) in various power states
system.cpu.dtb.walker.walks                         0                       # Table walker walks requested
system.cpu.dtb.walker.walkRequestOrigin_Requested::Data            0                       # Table walker requests started/completed, data/inst
system.cpu.dtb.walker.walkRequestOrigin_Requested::Inst            0                       # Table walker requests started/completed, data/inst
system.cpu.dtb.walker.walkRequestOrigin_Requested::total            0                       # Table walker requests started/completed, data/inst
system.cpu.dtb.walker.walkRequestOrigin_Completed::Data            0                       # Table walker requests started/completed, data/inst
system.cpu.dtb.walker.walkRequestOrigin_Completed::Inst            0                       # Table walker requests started/completed, data/inst
system.cpu.dtb.walker.walkRequestOrigin_Completed::total            0                       # Table walker requests started/completed, data/inst
system.cpu.dtb.walker.walkRequestOrigin::total            0                       # Table walker requests started/completed, data/inst
system.cpu.dtb.inst_hits                            0                       # ITB inst hits
system.cpu.dtb.inst_misses                          0                       # ITB inst misses
system.cpu.dtb.read_hits                            0                       # DTB read hits
system.cpu.dtb.read_misses                          0                       # DTB read misses
system.cpu.dtb.write_hits                           0                       # DTB write hits
system.cpu.dtb.write_misses                         0                       # DTB write misses
system.cpu.dtb.flush_tlb                            0                       # Number of times complete TLB was flushed
system.cpu.dtb.flush_tlb_mva                        0                       # Number of times TLB was flushed by MVA
system.cpu.dtb.flush_tlb_mva_asid                   0                       # Number of times TLB was flushed by MVA & ASID
system.cpu.dtb.flush_tlb_asid                       0                       # Number of times TLB was flushed by ASID
system.cpu.dtb.flush_entries                        0                       # Number of entries that have been flushed from TLB
system.cpu.dtb.align_faults                         0                       # Number of TLB faults due to alignment restrictions
system.cpu.dtb.prefetch_faults                      0                       # Number of TLB faults due to prefetch
system.cpu.dtb.domain_faults                        0                       # Number of TLB faults due to domain restrictions
system.cpu.dtb.perms_faults                         0                       # Number of TLB faults due to permissions restrictions
system.cpu.dtb.read_accesses                        0                       # DTB read accesses
system.cpu.dtb.write_accesses                       0                       # DTB write accesses
system.cpu.dtb.inst_accesses                        0                       # ITB inst accesses
system.cpu.dtb.hits                                 0                       # DTB hits
system.cpu.dtb.misses                               0                       # DTB misses
system.cpu.dtb.accesses                             0                       # DTB accesses
system.cpu.istage2_mmu.stage2_tlb.walker.pwrStateResidencyTicks::UNDEFINED   7464174500                       # Cumulative time (in ticks) in various power states
system.cpu.istage2_mmu.stage2_tlb.walker.walks            0                       # Table walker walks requested
system.cpu.istage2_mmu.stage2_tlb.walker.walkRequestOrigin_Requested::Data            0                       # Table walker requests started/completed, data/inst
system.cpu.istage2_mmu.stage2_tlb.walker.walkRequestOrigin_Requested::Inst            0                       # Table walker requests started/completed, data/inst
system.cpu.istage2_mmu.stage2_tlb.walker.walkRequestOrigin_Requested::total            0                       # Table walker requests started/completed, data/inst
system.cpu.istage2_mmu.stage2_tlb.walker.walkRequestOrigin_Completed::Data            0                       # Table walker requests started/completed, data/inst
system.cpu.istage2_mmu.stage2_tlb.walker.walkRequestOrigin_Completed::Inst            0                       # Table walker requests started/completed, data/inst
system.cpu.istage2_mmu.stage2_tlb.walker.walkRequestOrigin_Completed::total            0                       # Table walker requests started/completed, data/inst
system.cpu.istage2_mmu.stage2_tlb.walker.walkRequestOrigin::total            0                       # Table walker requests started/completed, data/inst
system.cpu.istage2_mmu.stage2_tlb.inst_hits            0                       # ITB inst hits
system.cpu.istage2_mmu.stage2_tlb.inst_misses            0                       # ITB inst misses
system.cpu.istage2_mmu.stage2_tlb.read_hits            0                       # DTB read hits
system.cpu.istage2_mmu.stage2_tlb.read_misses            0                       # DTB read misses
system.cpu.istage2_mmu.stage2_tlb.write_hits            0                       # DTB write hits
system.cpu.istage2_mmu.stage2_tlb.write_misses            0                       # DTB write misses
system.cpu.istage2_mmu.stage2_tlb.flush_tlb            0                       # Number of times complete TLB was flushed
system.cpu.istage2_mmu.stage2_tlb.flush_tlb_mva            0                       # Number of times TLB was flushed by MVA
system.cpu.istage2_mmu.stage2_tlb.flush_tlb_mva_asid            0                       # Number of times TLB was flushed by MVA & ASID
system.cpu.istage2_mmu.stage2_tlb.flush_tlb_asid            0                       # Number of times TLB was flushed by ASID
system.cpu.istage2_mmu.stage2_tlb.flush_entries            0                       # Number of entries that have been flushed from TLB
system.cpu.istage2_mmu.stage2_tlb.align_faults            0                       # Number of TLB faults due to alignment restrictions
system.cpu.istage2_mmu.stage2_tlb.prefetch_faults            0                       # Number of TLB faults due to prefetch
system.cpu.istage2_mmu.stage2_tlb.domain_faults            0                       # Number of TLB faults due to domain restrictions
system.cpu.istage2_mmu.stage2_tlb.perms_faults            0                       # Number of TLB faults due to permissions restrictions
system.cpu.istage2_mmu.stage2_tlb.read_accesses            0                       # DTB read accesses
system.cpu.istage2_mmu.stage2_tlb.write_accesses            0                       # DTB write accesses
system.cpu.istage2_mmu.stage2_tlb.inst_accesses            0                       # ITB inst accesses
system.cpu.istage2_mmu.stage2_tlb.hits              0                       # DTB hits
system.cpu.istage2_mmu.stage2_tlb.misses            0                       # DTB misses
system.cpu.istage2_mmu.stage2_tlb.accesses            0                       # DTB accesses
system.cpu.itb.walker.pwrStateResidencyTicks::UNDEFINED   7464174500                       # Cumulative time (in ticks) in various power states
system.cpu.itb.walker.walks                         0                       # Table walker walks requested
system.cpu.itb.walker.walkRequestOrigin_Requested::Data            0                       # Table walker requests started/completed, data/inst
system.cpu.itb.walker.walkRequestOrigin_Requested::Inst            0                       # Table walker requests started/completed, data/inst
system.cpu.itb.walker.walkRequestOrigin_Requested::total            0                       # Table walker requests started/completed, data/inst
system.cpu.itb.walker.walkRequestOrigin_Completed::Data            0                       # Table walker requests started/completed, data/inst
system.cpu.itb.walker.walkRequestOrigin_Completed::Inst            0                       # Table walker requests started/completed, data/inst
system.cpu.itb.walker.walkRequestOrigin_Completed::total            0                       # Table walker requests started/completed, data/inst
system.cpu.itb.walker.walkRequestOrigin::total            0                       # Table walker requests started/completed, data/inst
system.cpu.itb.inst_hits                            0                       # ITB inst hits
system.cpu.itb.inst_misses                          0                       # ITB inst misses
system.cpu.itb.read_hits                            0                       # DTB read hits
system.cpu.itb.read_misses                          0                       # DTB read misses
system.cpu.itb.write_hits                           0                       # DTB write hits
system.cpu.itb.write_misses                         0                       # DTB write misses
system.cpu.itb.flush_tlb                            0                       # Number of times complete TLB was flushed
system.cpu.itb.flush_tlb_mva                        0                       # Number of times TLB was flushed by MVA
system.cpu.itb.flush_tlb_mva_asid                   0                       # Number of times TLB was flushed by MVA & ASID
system.cpu.itb.flush_tlb_asid                       0                       # Number of times TLB was flushed by ASID
system.cpu.itb.flush_entries                        0                       # Number of entries that have been flushed from TLB
system.cpu.itb.align_faults                         0                       # Number of TLB faults due to alignment restrictions
system.cpu.itb.prefetch_faults                      0                       # Number of TLB faults due to prefetch
system.cpu.itb.domain_faults                        0                       # Number of TLB faults due to domain restrictions
system.cpu.itb.perms_faults                         0                       # Number of TLB faults due to permissions restrictions
system.cpu.itb.read_accesses                        0                       # DTB read accesses
system.cpu.itb.write_accesses                       0                       # DTB write accesses
system.cpu.itb.inst_accesses                        0                       # ITB inst accesses
system.cpu.itb.hits                                 0                       # DTB hits
system.cpu.itb.misses                               0                       # DTB misses
system.cpu.itb.accesses                             0                       # DTB accesses
system.cpu.workload.numSyscalls                    11                       # Number of system calls
system.cpu.pwrStateResidencyTicks::ON      7464174500                       # Cumulative time (in ticks) in various power states
system.cpu.numCycles                         14928350                       # number of cpu cycles simulated
system.cpu.numWorkItemsStarted                      0                       # number of work items this cpu started
system.cpu.numWorkItemsCompleted                    0                       # number of work items this cpu completed
system.cpu.fetch.icacheStallCycles              30486                       # Number of cycles fetch is stalled on an Icache miss
system.cpu.fetch.Insts                       26372633                       # Number of instructions fetch has processed
system.cpu.fetch.Branches                      850565                       # Number of branches that fetch encountered
system.cpu.fetch.predictedBranches             846008                       # Number of branches that fetch has predicted taken
system.cpu.fetch.Cycles                      14831985                       # Number of cycles fetch has run and was not squashing or blocked
system.cpu.fetch.SquashCycles                   37050                       # Number of cycles fetch has spent squashing
system.cpu.fetch.MiscStallCycles                  297                       # Number of cycles fetch has spent waiting on interrupts, or bad addresses, or out of MSHRs
system.cpu.fetch.IcacheWaitRetryStallCycles          591                       # Number of stall cycles due to full MSHR
system.cpu.fetch.CacheLines                   7388466                       # Number of cache lines fetched
system.cpu.fetch.IcacheSquashes                   318                       # Number of outstanding Icache misses that were squashed
system.cpu.fetch.rateDist::samples           14881884                       # Number of instructions fetched each cycle (Total)
system.cpu.fetch.rateDist::mean              1.772655                       # Number of instructions fetched each cycle (Total)
system.cpu.fetch.rateDist::stdev             1.133893                       # Number of instructions fetched each cycle (Total)
system.cpu.fetch.rateDist::underflows               0      0.00%      0.00% # Number of instructions fetched each cycle (Total)
system.cpu.fetch.rateDist::0                  1709998     11.49%     11.49% # Number of instructions fetched each cycle (Total)
system.cpu.fetch.rateDist::1                  6513171     43.77%     55.26% # Number of instructions fetched each cycle (Total)
system.cpu.fetch.rateDist::2                   108864      0.73%     55.99% # Number of instructions fetched each cycle (Total)
system.cpu.fetch.rateDist::3                  6549851     44.01%    100.00% # Number of instructions fetched each cycle (Total)
system.cpu.fetch.rateDist::overflows                0      0.00%    100.00% # Number of instructions fetched each cycle (Total)
system.cpu.fetch.rateDist::min_value                0                       # Number of instructions fetched each cycle (Total)
system.cpu.fetch.rateDist::max_value                3                       # Number of instructions fetched each cycle (Total)
system.cpu.fetch.rateDist::total             14881884                       # Number of instructions fetched each cycle (Total)
system.cpu.fetch.branchRate                  0.056976                       # Number of branch fetches per cycle
system.cpu.fetch.rate                        1.766614                       # Number of inst fetches per cycle
system.cpu.decode.IdleCycles                  1100679                       # Number of cycles decode is idle
system.cpu.decode.BlockedCycles               4768299                       # Number of cycles decode is blocked
system.cpu.decode.RunCycles                   7593423                       # Number of cycles decode is running
system.cpu.decode.UnblockCycles               1401231                       # Number of cycles decode is unblocking
system.cpu.decode.SquashCycles                  18252                       # Number of cycles decode is squashing
system.cpu.decode.BranchResolved               777602                       # Number of times decode resolved a branch
system.cpu.decode.BranchMispred                   278                       # Number of times decode detected a branch misprediction
system.cpu.decode.DecodedInsts               25786914                       # Number of instructions handled by decode
system.cpu.decode.SquashedInsts                107663                       # Number of squashed instructions handled by decode
system.cpu.rename.SquashCycles                  18252                       # Number of cycles rename is squashing
system.cpu.rename.IdleCycles                  1857277                       # Number of cycles rename is idle
system.cpu.rename.BlockCycles                 3415942                       # Number of cycles rename is blocking
system.cpu.rename.serializeStallCycles           4252                       # count of cycles rename stalled for serializing inst
system.cpu.rename.RunCycles                   7930258                       # Number of cycles rename is running
system.cpu.rename.UnblockCycles               1655903                       # Number of cycles rename is unblocking
system.cpu.rename.RenamedInsts               25771816                       # Number of instructions processed by rename
system.cpu.rename.SquashedInsts                  7704                       # Number of squashed instructions processed by rename
system.cpu.rename.ROBFullEvents               1008107                       # Number of times rename has blocked due to ROB full
system.cpu.rename.LQFullEvents                      1                       # Number of times rename has blocked due to LQ full
system.cpu.rename.SQFullEvents                   6273                       # Number of times rename has blocked due to SQ full
system.cpu.rename.FullRegisterEvents               61                       # Number of times there has been no free registers
system.cpu.rename.RenamedOperands            26906837                       # Number of destination operands rename has renamed
system.cpu.rename.RenameLookups              47452426                       # Number of register rename lookups that rename has made
system.cpu.rename.int_rename_lookups         32678115                       # Number of integer rename lookups
system.cpu.rename.vec_rename_lookups          3296847                       # Number of vector rename lookups
system.cpu.rename.CommittedMaps              26647177                       # Number of HB maps that are committed
system.cpu.rename.UndoneMaps                   259660                       # Number of HB maps that are undone due to squashing
system.cpu.rename.serializingInsts                116                       # count of serializing insts renamed
system.cpu.rename.tempSerializingInsts             62                       # count of temporary serializing insts renamed
system.cpu.rename.skidInsts                   3046092                       # count of insts added to the skid buffer
system.cpu.memDep0.insertedLoads              8783950                       # Number of loads inserted to the mem dependence unit.
system.cpu.memDep0.insertedStores             1546977                       # Number of stores inserted to the mem dependence unit.
system.cpu.memDep0.conflictingLoads           1458923                       # Number of conflicting loads.
system.cpu.memDep0.conflictingStores           318998                       # Number of conflicting stores.
system.cpu.iq.iqInstsAdded                   25705002                       # Number of instructions added to the IQ (excludes non-spec)
system.cpu.iq.iqNonSpecInstsAdded                  62                       # Number of non-speculative instructions added to the IQ
system.cpu.iq.iqInstsIssued                  25563963                       # Number of instructions issued
system.cpu.iq.iqSquashedInstsIssued              1267                       # Number of squashed instructions issued
system.cpu.iq.iqSquashedInstsExamined          211592                       # Number of squashed instructions iterated over during squash; mainly for profiling
system.cpu.iq.iqSquashedOperandsExamined       280236                       # Number of squashed operands that are examined and possibly removed from graph
system.cpu.iq.iqSquashedNonSpecRemoved             14                       # Number of squashed non-spec instructions that were removed
system.cpu.iq.issued_per_cycle::samples      14881884                       # Number of insts issued each cycle
system.cpu.iq.issued_per_cycle::mean         1.717791                       # Number of insts issued each cycle
system.cpu.iq.issued_per_cycle::stdev        0.903823                       # Number of insts issued each cycle
system.cpu.iq.issued_per_cycle::underflows            0      0.00%      0.00% # Number of insts issued each cycle
system.cpu.iq.issued_per_cycle::0             1381313      9.28%      9.28% # Number of insts issued each cycle
system.cpu.iq.issued_per_cycle::1             4274253     28.72%     38.00% # Number of insts issued each cycle
system.cpu.iq.issued_per_cycle::2             6742047     45.30%     83.31% # Number of insts issued each cycle
system.cpu.iq.issued_per_cycle::3             2131468     14.32%     97.63% # Number of insts issued each cycle
system.cpu.iq.issued_per_cycle::4              352803      2.37%    100.00% # Number of insts issued each cycle
system.cpu.iq.issued_per_cycle::5                   0      0.00%    100.00% # Number of insts issued each cycle
system.cpu.iq.issued_per_cycle::6                   0      0.00%    100.00% # Number of insts issued each cycle
system.cpu.iq.issued_per_cycle::7                   0      0.00%    100.00% # Number of insts issued each cycle
system.cpu.iq.issued_per_cycle::8                   0      0.00%    100.00% # Number of insts issued each cycle
system.cpu.iq.issued_per_cycle::overflows            0      0.00%    100.00% # Number of insts issued each cycle
system.cpu.iq.issued_per_cycle::min_value            0                       # Number of insts issued each cycle
system.cpu.iq.issued_per_cycle::max_value            4                       # Number of insts issued each cycle
system.cpu.iq.issued_per_cycle::total        14881884                       # Number of insts issued each cycle
system.cpu.iq.fu_full::No_OpClass                   0      0.00%      0.00% # attempts to use FU when none available
system.cpu.iq.fu_full::IntAlu                  859432     30.99%     30.99% # attempts to use FU when none available
system.cpu.iq.fu_full::IntMult                    413      0.01%     31.01% # attempts to use FU when none available
system.cpu.iq.fu_full::IntDiv                       2      0.00%     31.01% # attempts to use FU when none available
system.cpu.iq.fu_full::FloatAdd                     0      0.00%     31.01% # attempts to use FU when none available
system.cpu.iq.fu_full::FloatCmp                     0      0.00%     31.01% # attempts to use FU when none available
system.cpu.iq.fu_full::FloatCvt                     0      0.00%     31.01% # attempts to use FU when none available
system.cpu.iq.fu_full::FloatMult                    0      0.00%     31.01% # attempts to use FU when none available
system.cpu.iq.fu_full::FloatMultAcc                 0      0.00%     31.01% # attempts to use FU when none available
system.cpu.iq.fu_full::FloatDiv                     0      0.00%     31.01% # attempts to use FU when none available
system.cpu.iq.fu_full::FloatMisc                    9      0.00%     31.01% # attempts to use FU when none available
system.cpu.iq.fu_full::FloatSqrt                    0      0.00%     31.01% # attempts to use FU when none available
system.cpu.iq.fu_full::SimdAdd                      0      0.00%     31.01% # attempts to use FU when none available
system.cpu.iq.fu_full::SimdAddAcc                   0      0.00%     31.01% # attempts to use FU when none available
system.cpu.iq.fu_full::SimdAlu                      1      0.00%     31.01% # attempts to use FU when none available
system.cpu.iq.fu_full::SimdCmp                     13      0.00%     31.01% # attempts to use FU when none available
system.cpu.iq.fu_full::SimdCvt                      0      0.00%     31.01% # attempts to use FU when none available
system.cpu.iq.fu_full::SimdMisc                     0      0.00%     31.01% # attempts to use FU when none available
system.cpu.iq.fu_full::SimdMult                     0      0.00%     31.01% # attempts to use FU when none available
system.cpu.iq.fu_full::SimdMultAcc                  0      0.00%     31.01% # attempts to use FU when none available
system.cpu.iq.fu_full::SimdShift                    0      0.00%     31.01% # attempts to use FU when none available
system.cpu.iq.fu_full::SimdShiftAcc                 0      0.00%     31.01% # attempts to use FU when none available
system.cpu.iq.fu_full::SimdSqrt                     0      0.00%     31.01% # attempts to use FU when none available
system.cpu.iq.fu_full::SimdFloatAdd                 0      0.00%     31.01% # attempts to use FU when none available
system.cpu.iq.fu_full::SimdFloatAlu                 0      0.00%     31.01% # attempts to use FU when none available
system.cpu.iq.fu_full::SimdFloatCmp                 0      0.00%     31.01% # attempts to use FU when none available
system.cpu.iq.fu_full::SimdFloatCvt                 0      0.00%     31.01% # attempts to use FU when none available
system.cpu.iq.fu_full::SimdFloatDiv                 0      0.00%     31.01% # attempts to use FU when none available
system.cpu.iq.fu_full::SimdFloatMisc                0      0.00%     31.01% # attempts to use FU when none available
system.cpu.iq.fu_full::SimdFloatMult                0      0.00%     31.01% # attempts to use FU when none available
system.cpu.iq.fu_full::SimdFloatMultAcc             0      0.00%     31.01% # attempts to use FU when none available
system.cpu.iq.fu_full::SimdFloatSqrt                0      0.00%     31.01% # attempts to use FU when none available
system.cpu.iq.fu_full::MemRead                1812480     65.36%     96.37% # attempts to use FU when none available
system.cpu.iq.fu_full::MemWrite                100755      3.63%    100.00% # attempts to use FU when none available
system.cpu.iq.fu_full::FloatMemRead                 0      0.00%    100.00% # attempts to use FU when none available
system.cpu.iq.fu_full::FloatMemWrite                0      0.00%    100.00% # attempts to use FU when none available
system.cpu.iq.fu_full::IprAccess                    0      0.00%    100.00% # attempts to use FU when none available
system.cpu.iq.fu_full::InstPrefetch                 0      0.00%    100.00% # attempts to use FU when none available
system.cpu.iq.FU_type_0::No_OpClass                22      0.00%      0.00% # Type of FU issued
system.cpu.iq.FU_type_0::IntAlu              13810076     54.02%     54.02% # Type of FU issued
system.cpu.iq.FU_type_0::IntMult                65657      0.26%     54.28% # Type of FU issued
system.cpu.iq.FU_type_0::IntDiv                   197      0.00%     54.28% # Type of FU issued
system.cpu.iq.FU_type_0::FloatAdd              640000      2.50%     56.78% # Type of FU issued
system.cpu.iq.FU_type_0::FloatCmp                  20      0.00%     56.78% # Type of FU issued
system.cpu.iq.FU_type_0::FloatCvt               32000      0.13%     56.91% # Type of FU issued
system.cpu.iq.FU_type_0::FloatMult             640000      2.50%     59.41% # Type of FU issued
system.cpu.iq.FU_type_0::FloatMultAcc               0      0.00%     59.41% # Type of FU issued
system.cpu.iq.FU_type_0::FloatDiv               32000      0.13%     59.54% # Type of FU issued
system.cpu.iq.FU_type_0::FloatMisc              32025      0.13%     59.66% # Type of FU issued
system.cpu.iq.FU_type_0::FloatSqrt                  0      0.00%     59.66% # Type of FU issued
system.cpu.iq.FU_type_0::SimdAdd                   51      0.00%     59.66% # Type of FU issued
system.cpu.iq.FU_type_0::SimdAddAcc                 0      0.00%     59.66% # Type of FU issued
system.cpu.iq.FU_type_0::SimdAlu                   88      0.00%     59.66% # Type of FU issued
system.cpu.iq.FU_type_0::SimdCmp                   88      0.00%     59.66% # Type of FU issued
system.cpu.iq.FU_type_0::SimdCvt                    0      0.00%     59.66% # Type of FU issued
system.cpu.iq.FU_type_0::SimdMisc                  67      0.00%     59.66% # Type of FU issued
system.cpu.iq.FU_type_0::SimdMult                   0      0.00%     59.66% # Type of FU issued
system.cpu.iq.FU_type_0::SimdMultAcc                0      0.00%     59.66% # Type of FU issued
system.cpu.iq.FU_type_0::SimdShift                  0      0.00%     59.66% # Type of FU issued
system.cpu.iq.FU_type_0::SimdShiftAcc               0      0.00%     59.66% # Type of FU issued
system.cpu.iq.FU_type_0::SimdSqrt                   0      0.00%     59.66% # Type of FU issued
system.cpu.iq.FU_type_0::SimdFloatAdd               0      0.00%     59.66% # Type of FU issued
system.cpu.iq.FU_type_0::SimdFloatAlu               0      0.00%     59.66% # Type of FU issued
system.cpu.iq.FU_type_0::SimdFloatCmp               0      0.00%     59.66% # Type of FU issued
system.cpu.iq.FU_type_0::SimdFloatCvt               0      0.00%     59.66% # Type of FU issued
system.cpu.iq.FU_type_0::SimdFloatDiv               0      0.00%     59.66% # Type of FU issued
system.cpu.iq.FU_type_0::SimdFloatMisc              0      0.00%     59.66% # Type of FU issued
system.cpu.iq.FU_type_0::SimdFloatMult              0      0.00%     59.66% # Type of FU issued
system.cpu.iq.FU_type_0::SimdFloatMultAcc            0      0.00%     59.66% # Type of FU issued
system.cpu.iq.FU_type_0::SimdFloatSqrt              0      0.00%     59.66% # Type of FU issued
system.cpu.iq.FU_type_0::MemRead              8766758     34.29%     93.96% # Type of FU issued
system.cpu.iq.FU_type_0::MemWrite             1544914      6.04%    100.00% # Type of FU issued
system.cpu.iq.FU_type_0::FloatMemRead               0      0.00%    100.00% # Type of FU issued
system.cpu.iq.FU_type_0::FloatMemWrite              0      0.00%    100.00% # Type of FU issued
system.cpu.iq.FU_type_0::IprAccess                  0      0.00%    100.00% # Type of FU issued
system.cpu.iq.FU_type_0::InstPrefetch               0      0.00%    100.00% # Type of FU issued
system.cpu.iq.FU_type_0::total               25563963                       # Type of FU issued
system.cpu.iq.rate                           1.712444                       # Inst issue rate
system.cpu.iq.fu_busy_cnt                     2773105                       # FU busy when requested
system.cpu.iq.fu_busy_rate                   0.108477                       # FU busy rate (busy events/executed inst)
system.cpu.iq.int_inst_queue_reads           60817225                       # Number of integer instruction queue reads
system.cpu.iq.int_inst_queue_writes          21915949                       # Number of integer instruction queue writes
system.cpu.iq.int_inst_queue_wakeup_accesses     21558293                       # Number of integer instruction queue wakeup accesses
system.cpu.iq.fp_inst_queue_reads                   0                       # Number of floating instruction queue reads
system.cpu.iq.fp_inst_queue_writes                  0                       # Number of floating instruction queue writes
system.cpu.iq.fp_inst_queue_wakeup_accesses            0                       # Number of floating instruction queue wakeup accesses
system.cpu.iq.int_alu_accesses               24338788                       # Number of integer alu accesses
system.cpu.iq.fp_alu_accesses                       0                       # Number of floating point alu accesses
system.cpu.iew.lsq.thread0.forwLoads          3060215                       # Number of loads that had data forwarded from stores
system.cpu.iew.lsq.thread0.invAddrLoads             0                       # Number of loads ignored due to an invalid address
system.cpu.iew.lsq.thread0.squashedLoads        70278                       # Number of loads squashed
system.cpu.iew.lsq.thread0.ignoredResponses           28                       # Number of memory responses ignored because the instruction is squashed
system.cpu.iew.lsq.thread0.memOrderViolation          227                       # Number of memory ordering violations
system.cpu.iew.lsq.thread0.squashedStores         2638                       # Number of stores squashed
system.cpu.iew.lsq.thread0.invAddrSwpfs             0                       # Number of software prefetches ignored due to an invalid address
system.cpu.iew.lsq.thread0.blockedLoads             0                       # Number of blocked loads due to partial load-store forwarding
system.cpu.iew.lsq.thread0.rescheduledLoads           84                       # Number of loads that were rescheduled
system.cpu.iew.lsq.thread0.cacheBlocked            53                       # Number of times an access to memory failed due to the cache being blocked
system.cpu.iew.iewIdleCycles                        0                       # Number of cycles IEW is idle
system.cpu.iew.iewSquashCycles                  18252                       # Number of cycles IEW is squashing
system.cpu.iew.iewBlockCycles                    3003                       # Number of cycles IEW is blocking
system.cpu.iew.iewUnblockCycles                     0                       # Number of cycles IEW is unblocking
system.cpu.iew.iewDispatchedInsts            25721143                       # Number of instructions dispatched to IQ
system.cpu.iew.iewDispSquashedInsts                 0                       # Number of squashed instructions skipped by dispatch
system.cpu.iew.iewDispLoadInsts               8783950                       # Number of dispatched load instructions
system.cpu.iew.iewDispStoreInsts              1546977                       # Number of dispatched store instructions
system.cpu.iew.iewDispNonSpecInsts                 61                       # Number of dispatched non-speculative instructions
system.cpu.iew.iewIQFullEvents                      0                       # Number of times the IQ has become full, causing a stall
system.cpu.iew.iewLSQFullEvents                     0                       # Number of times the LSQ has become full, causing a stall
system.cpu.iew.memOrderViolationEvents            227                       # Number of memory order violations
system.cpu.iew.predictedTakenIncorrect          17628                       # Number of branches that were predicted taken incorrectly
system.cpu.iew.predictedNotTakenIncorrect          454                       # Number of branches that were predicted not taken incorrectly
system.cpu.iew.branchMispredicts                18082                       # Number of branch mispredicts detected at execute
system.cpu.iew.iewExecutedInsts              25545905                       # Number of executed instructions
system.cpu.iew.iewExecLoadInsts               8750175                       # Number of load instructions executed
system.cpu.iew.iewExecSquashedInsts             18058                       # Number of squashed instructions skipped in execute
system.cpu.iew.exec_swp                             0                       # number of swp insts executed
system.cpu.iew.exec_nop                         16079                       # number of nop insts executed
system.cpu.iew.exec_refs                     10294871                       # number of memory reference insts executed
system.cpu.iew.exec_branches                   828532                       # Number of branches executed
system.cpu.iew.exec_stores                    1544696                       # Number of stores executed
system.cpu.iew.exec_rate                     1.711234                       # Inst execution rate
system.cpu.iew.wb_sent                       25527018                       # cumulative count of insts sent to commit
system.cpu.iew.wb_count                      25526907                       # cumulative count of insts written-back
system.cpu.iew.wb_producers                  22439151                       # num instructions producing a value
system.cpu.iew.wb_consumers                  26714683                       # num instructions consuming a value
system.cpu.iew.wb_rate                       1.709962                       # insts written-back per cycle
system.cpu.iew.wb_fanout                     0.839956                       # average fanout of values written-back
system.cpu.commit.commitSquashedInsts          161567                       # The number of squashed insts skipped by commit
system.cpu.commit.commitNonSpecStalls              48                       # The number of times commit has been forced to stall to communicate backwards
system.cpu.commit.branchMispredicts             18037                       # The number of times a branch was mispredicted
system.cpu.commit.committed_per_cycle::samples     14860629                       # Number of insts commited each cycle
system.cpu.commit.committed_per_cycle::mean     1.716584                       # Number of insts commited each cycle
system.cpu.commit.committed_per_cycle::stdev     2.798103                       # Number of insts commited each cycle
system.cpu.commit.committed_per_cycle::underflows            0      0.00%      0.00% # Number of insts commited each cycle
system.cpu.commit.committed_per_cycle::0      8144609     54.81%     54.81% # Number of insts commited each cycle
system.cpu.commit.committed_per_cycle::1      2159709     14.53%     69.34% # Number of insts commited each cycle
system.cpu.commit.committed_per_cycle::2      2037572     13.71%     83.05% # Number of insts commited each cycle
system.cpu.commit.committed_per_cycle::3        51696      0.35%     83.40% # Number of insts commited each cycle
system.cpu.commit.committed_per_cycle::4        49549      0.33%     83.73% # Number of insts commited each cycle
system.cpu.commit.committed_per_cycle::5        15815      0.11%     83.84% # Number of insts commited each cycle
system.cpu.commit.committed_per_cycle::6        17436      0.12%     83.96% # Number of insts commited each cycle
system.cpu.commit.committed_per_cycle::7       336261      2.26%     86.22% # Number of insts commited each cycle
system.cpu.commit.committed_per_cycle::8      2047982     13.78%    100.00% # Number of insts commited each cycle
system.cpu.commit.committed_per_cycle::overflows            0      0.00%    100.00% # Number of insts commited each cycle
system.cpu.commit.committed_per_cycle::min_value            0                       # Number of insts commited each cycle
system.cpu.commit.committed_per_cycle::max_value            8                       # Number of insts commited each cycle
system.cpu.commit.committed_per_cycle::total     14860629                       # Number of insts commited each cycle
system.cpu.commit.committedInsts             25504099                       # Number of instructions committed
system.cpu.commit.committedOps               25509511                       # Number of ops (including micro ops) committed
system.cpu.commit.swp_count                         0                       # Number of s/w prefetches committed
system.cpu.commit.refs                       10258011                       # Number of memory references committed
system.cpu.commit.loads                       8713672                       # Number of loads committed
system.cpu.commit.membars                          36                       # Number of memory barriers committed
system.cpu.commit.branches                     826140                       # Number of branches committed
system.cpu.commit.vec_insts                   3968598                       # Number of committed Vector instructions.
system.cpu.commit.fp_insts                          0                       # Number of committed floating point instructions.
system.cpu.commit.int_insts                  23421793                       # Number of committed integer instructions.
system.cpu.commit.function_calls                48616                       # Number of function calls committed.
system.cpu.commit.op_class_0::No_OpClass           22      0.00%      0.00% # Class of committed instruction
system.cpu.commit.op_class_0::IntAlu         13810103     54.14%     54.14% # Class of committed instruction
system.cpu.commit.op_class_0::IntMult           64845      0.25%     54.39% # Class of committed instruction
system.cpu.commit.op_class_0::IntDiv              196      0.00%     54.39% # Class of committed instruction
system.cpu.commit.op_class_0::FloatAdd         640000      2.51%     56.90% # Class of committed instruction
system.cpu.commit.op_class_0::FloatCmp             20      0.00%     56.90% # Class of committed instruction
system.cpu.commit.op_class_0::FloatCvt          32000      0.13%     57.03% # Class of committed instruction
system.cpu.commit.op_class_0::FloatMult        640000      2.51%     59.54% # Class of committed instruction
system.cpu.commit.op_class_0::FloatMultAcc            0      0.00%     59.54% # Class of committed instruction
system.cpu.commit.op_class_0::FloatDiv          32000      0.13%     59.66% # Class of committed instruction
system.cpu.commit.op_class_0::FloatMisc         32020      0.13%     59.79% # Class of committed instruction
system.cpu.commit.op_class_0::FloatSqrt             0      0.00%     59.79% # Class of committed instruction
system.cpu.commit.op_class_0::SimdAdd              51      0.00%     59.79% # Class of committed instruction
system.cpu.commit.op_class_0::SimdAddAcc            0      0.00%     59.79% # Class of committed instruction
system.cpu.commit.op_class_0::SimdAlu              88      0.00%     59.79% # Class of committed instruction
system.cpu.commit.op_class_0::SimdCmp              88      0.00%     59.79% # Class of committed instruction
system.cpu.commit.op_class_0::SimdCvt               0      0.00%     59.79% # Class of committed instruction
system.cpu.commit.op_class_0::SimdMisc             67      0.00%     59.79% # Class of committed instruction
system.cpu.commit.op_class_0::SimdMult              0      0.00%     59.79% # Class of committed instruction
system.cpu.commit.op_class_0::SimdMultAcc            0      0.00%     59.79% # Class of committed instruction
system.cpu.commit.op_class_0::SimdShift             0      0.00%     59.79% # Class of committed instruction
system.cpu.commit.op_class_0::SimdShiftAcc            0      0.00%     59.79% # Class of committed instruction
system.cpu.commit.op_class_0::SimdSqrt              0      0.00%     59.79% # Class of committed instruction
system.cpu.commit.op_class_0::SimdFloatAdd            0      0.00%     59.79% # Class of committed instruction
system.cpu.commit.op_class_0::SimdFloatAlu            0      0.00%     59.79% # Class of committed instruction
system.cpu.commit.op_class_0::SimdFloatCmp            0      0.00%     59.79% # Class of committed instruction
system.cpu.commit.op_class_0::SimdFloatCvt            0      0.00%     59.79% # Class of committed instruction
system.cpu.commit.op_class_0::SimdFloatDiv            0      0.00%     59.79% # Class of committed instruction
system.cpu.commit.op_class_0::SimdFloatMisc            0      0.00%     59.79% # Class of committed instruction
system.cpu.commit.op_class_0::SimdFloatMult            0      0.00%     59.79% # Class of committed instruction
system.cpu.commit.op_class_0::SimdFloatMultAcc            0      0.00%     59.79% # Class of committed instruction
system.cpu.commit.op_class_0::SimdFloatSqrt            0      0.00%     59.79% # Class of committed instruction
system.cpu.commit.op_class_0::MemRead         8713672     34.16%     93.95% # Class of committed instruction
[...]
system.l2.ReadCleanReq_miss_rate::total      0.810373                       # miss rate for ReadCleanReq accesses
system.l2.ReadSharedReq_miss_rate::cpu.data     0.602210                       # miss rate for ReadSharedReq accesses
system.l2.ReadSharedReq_miss_rate::total     0.602210                       # miss rate for ReadSharedReq accesses
system.l2.demand_miss_rate::cpu.inst         0.810373                       # miss rate for demand accesses
system.l2.demand_miss_rate::cpu.data         0.214356                       # miss rate for demand accesses
system.l2.demand_miss_rate::total            0.439412                       # miss rate for demand accesses
system.l2.overall_miss_rate::cpu.inst        0.810373                       # miss rate for overall accesses
system.l2.overall_miss_rate::cpu.data        0.214356                       # miss rate for overall accesses
system.l2.overall_miss_rate::total           0.439412                       # miss rate for overall accesses
system.l2.ReadExReq_avg_miss_latency::cpu.data 108151.376147                       # average ReadExReq miss latency
system.l2.ReadExReq_avg_miss_latency::total 108151.376147                       # average ReadExReq miss latency
system.l2.ReadCleanReq_avg_miss_latency::cpu.inst        84197                       # average ReadCleanReq miss latency
system.l2.ReadCleanReq_avg_miss_latency::total        84197                       # average ReadCleanReq miss latency
system.l2.ReadSharedReq_avg_miss_latency::cpu.data 87481.651376                       # average ReadSharedReq miss latency
system.l2.ReadSharedReq_avg_miss_latency::total 87481.651376                       # average ReadSharedReq miss latency
system.l2.demand_avg_miss_latency::cpu.inst        84197                       # average overall miss latency
system.l2.demand_avg_miss_latency::cpu.data 97816.513761                       # average overall miss latency
system.l2.demand_avg_miss_latency::total 88332.172702                       # average overall miss latency
system.l2.overall_avg_miss_latency::cpu.inst        84197                       # average overall miss latency
system.l2.overall_avg_miss_latency::cpu.data 97816.513761                       # average overall miss latency
system.l2.overall_avg_miss_latency::total 88332.172702                       # average overall miss latency
system.l2.blocked_cycles::no_mshrs                  0                       # number of cycles access was blocked
system.l2.blocked_cycles::no_targets                0                       # number of cycles access was blocked
system.l2.blocked::no_mshrs                         0                       # number of cycles access was blocked
system.l2.blocked::no_targets                       0                       # number of cycles access was blocked
system.l2.avg_blocked_cycles::no_mshrs            nan                       # average number of cycles each access was blocked
system.l2.avg_blocked_cycles::no_targets          nan                       # average number of cycles each access was blocked
system.l2.ReadExReq_mshr_hits::cpu.data             1                       # number of ReadExReq MSHR hits
system.l2.ReadExReq_mshr_hits::total                1                       # number of ReadExReq MSHR hits
system.l2.ReadSharedReq_mshr_hits::cpu.data            5                       # number of ReadSharedReq MSHR hits
system.l2.ReadSharedReq_mshr_hits::total            5                       # number of ReadSharedReq MSHR hits
system.l2.demand_mshr_hits::cpu.data                6                       # number of demand (read+write) MSHR hits
system.l2.demand_mshr_hits::total                   6                       # number of demand (read+write) MSHR hits
system.l2.overall_mshr_hits::cpu.data               6                       # number of overall MSHR hits
system.l2.overall_mshr_hits::total                  6                       # number of overall MSHR hits
system.l2.HardPFReq_mshr_misses::l2.prefetcher          711                       # number of HardPFReq MSHR misses
system.l2.HardPFReq_mshr_misses::total            711                       # number of HardPFReq MSHR misses
system.l2.ReadExReq_mshr_misses::cpu.data          108                       # number of ReadExReq MSHR misses
system.l2.ReadExReq_mshr_misses::total            108                       # number of ReadExReq MSHR misses
system.l2.ReadCleanReq_mshr_misses::cpu.inst          500                       # number of ReadCleanReq MSHR misses
system.l2.ReadCleanReq_mshr_misses::total          500                       # number of ReadCleanReq MSHR misses
system.l2.ReadSharedReq_mshr_misses::cpu.data          104                       # number of ReadSharedReq MSHR misses
system.l2.ReadSharedReq_mshr_misses::total          104                       # number of ReadSharedReq MSHR misses
system.l2.demand_mshr_misses::cpu.inst            500                       # number of demand (read+write) MSHR misses
system.l2.demand_mshr_misses::cpu.data            212                       # number of demand (read+write) MSHR misses
system.l2.demand_mshr_misses::total               712                       # number of demand (read+write) MSHR misses
system.l2.overall_mshr_misses::cpu.inst           500                       # number of overall MSHR misses
system.l2.overall_mshr_misses::cpu.data           212                       # number of overall MSHR misses
system.l2.overall_mshr_misses::l2.prefetcher          711                       # number of overall MSHR misses
system.l2.overall_mshr_misses::total             1423                       # number of overall MSHR misses
system.l2.HardPFReq_mshr_miss_latency::l2.prefetcher     56422164                       # number of HardPFReq MSHR miss cycles
system.l2.HardPFReq_mshr_miss_latency::total     56422164                       # number of HardPFReq MSHR miss cycles
system.l2.ReadExReq_mshr_miss_latency::cpu.data     11125000                       # number of ReadExReq MSHR miss cycles
system.l2.ReadExReq_mshr_miss_latency::total     11125000                       # number of ReadExReq MSHR miss cycles
system.l2.ReadCleanReq_mshr_miss_latency::cpu.inst     39104500                       # number of ReadCleanReq MSHR miss cycles
system.l2.ReadCleanReq_mshr_miss_latency::total     39104500                       # number of ReadCleanReq MSHR miss cycles
system.l2.ReadSharedReq_mshr_miss_latency::cpu.data      8593000                       # number of ReadSharedReq MSHR miss cycles
system.l2.ReadSharedReq_mshr_miss_latency::total      8593000                       # number of ReadSharedReq MSHR miss cycles
system.l2.demand_mshr_miss_latency::cpu.inst     39104500                       # number of demand (read+write) MSHR miss cycles
system.l2.demand_mshr_miss_latency::cpu.data     19718000                       # number of demand (read+write) MSHR miss cycles
system.l2.demand_mshr_miss_latency::total     58822500                       # number of demand (read+write) MSHR miss cycles
system.l2.overall_mshr_miss_latency::cpu.inst     39104500                       # number of overall MSHR miss cycles
system.l2.overall_mshr_miss_latency::cpu.data     19718000                       # number of overall MSHR miss cycles
system.l2.overall_mshr_miss_latency::l2.prefetcher     56422164                       # number of overall MSHR miss cycles
system.l2.overall_mshr_miss_latency::total    115244664                       # number of overall MSHR miss cycles
system.l2.HardPFReq_mshr_miss_rate::l2.prefetcher          inf                       # mshr miss rate for HardPFReq accesses
system.l2.HardPFReq_mshr_miss_rate::total          inf                       # mshr miss rate for HardPFReq accesses
system.l2.ReadExReq_mshr_miss_rate::cpu.data     0.129187                       # mshr miss rate for ReadExReq accesses
system.l2.ReadExReq_mshr_miss_rate::total     0.129187                       # mshr miss rate for ReadExReq accesses
system.l2.ReadCleanReq_mshr_miss_rate::cpu.inst     0.810373                       # mshr miss rate for ReadCleanReq accesses
system.l2.ReadCleanReq_mshr_miss_rate::total     0.810373                       # mshr miss rate for ReadCleanReq accesses
system.l2.ReadSharedReq_mshr_miss_rate::cpu.data     0.574586                       # mshr miss rate for ReadSharedReq accesses
system.l2.ReadSharedReq_mshr_miss_rate::total     0.574586                       # mshr miss rate for ReadSharedReq accesses
system.l2.demand_mshr_miss_rate::cpu.inst     0.810373                       # mshr miss rate for demand accesses
system.l2.demand_mshr_miss_rate::cpu.data     0.208456                       # mshr miss rate for demand accesses
system.l2.demand_mshr_miss_rate::total       0.435741                       # mshr miss rate for demand accesses
system.l2.overall_mshr_miss_rate::cpu.inst     0.810373                       # mshr miss rate for overall accesses
system.l2.overall_mshr_miss_rate::cpu.data     0.208456                       # mshr miss rate for overall accesses
system.l2.overall_mshr_miss_rate::l2.prefetcher          inf                       # mshr miss rate for overall accesses
system.l2.overall_mshr_miss_rate::total      0.870869                       # mshr miss rate for overall accesses
system.l2.HardPFReq_avg_mshr_miss_latency::l2.prefetcher 79356.067511                       # average HardPFReq mshr miss latency
system.l2.HardPFReq_avg_mshr_miss_latency::total 79356.067511                       # average HardPFReq mshr miss latency
system.l2.ReadExReq_avg_mshr_miss_latency::cpu.data 103009.259259                       # average ReadExReq mshr miss latency
system.l2.ReadExReq_avg_mshr_miss_latency::total 103009.259259                       # average ReadExReq mshr miss latency
system.l2.ReadCleanReq_avg_mshr_miss_latency::cpu.inst        78209                       # average ReadCleanReq mshr miss latency
system.l2.ReadCleanReq_avg_mshr_miss_latency::total        78209                       # average ReadCleanReq mshr miss latency
system.l2.ReadSharedReq_avg_mshr_miss_latency::cpu.data        82625                       # average ReadSharedReq mshr miss latency
system.l2.ReadSharedReq_avg_mshr_miss_latency::total        82625                       # average ReadSharedReq mshr miss latency
system.l2.demand_avg_mshr_miss_latency::cpu.inst        78209                       # average overall mshr miss latency
system.l2.demand_avg_mshr_miss_latency::cpu.data 93009.433962                       # average overall mshr miss latency
system.l2.demand_avg_mshr_miss_latency::total 82615.870787                       # average overall mshr miss latency
system.l2.overall_avg_mshr_miss_latency::cpu.inst        78209                       # average overall mshr miss latency
system.l2.overall_avg_mshr_miss_latency::cpu.data 93009.433962                       # average overall mshr miss latency
system.l2.overall_avg_mshr_miss_latency::l2.prefetcher 79356.067511                       # average overall mshr miss latency
system.l2.overall_avg_mshr_miss_latency::total 80987.114547                       # average overall mshr miss latency
system.membus.snoop_filter.tot_requests          1371                       # Total number of requests made to the snoop filter.
system.membus.snoop_filter.hit_single_requests           15                       # Number of requests hitting in the snoop filter with a single holder of the requested data.
system.membus.snoop_filter.hit_multi_requests            0                       # Number of requests hitting in the snoop filter with multiple (>1) holders of the requested data.
system.membus.snoop_filter.tot_snoops               0                       # Total number of snoops made to the snoop filter.
system.membus.snoop_filter.hit_single_snoops            0                       # Number of snoops hitting in the snoop filter with a single holder of the requested data.
system.membus.snoop_filter.hit_multi_snoops            0                       # Number of snoops hitting in the snoop filter with multiple (>1) holders of the requested data.
system.membus.pwrStateResidencyTicks::UNDEFINED   7464174500                       # Cumulative time (in ticks) in various power states
system.membus.trans_dist::ReadResp               1262                       # Transaction distribution
system.membus.trans_dist::ReadExReq               108                       # Transaction distribution
system.membus.trans_dist::ReadExResp              108                       # Transaction distribution
system.membus.trans_dist::ReadSharedReq          1263                       # Transaction distribution
system.membus.pkt_count_system.l2.mem_side::system.mem_ctrls.port         2741                       # Packet count per connected master and slave (bytes)
system.membus.pkt_count::total                   2741                       # Packet count per connected master and slave (bytes)
system.membus.pkt_size_system.l2.mem_side::system.mem_ctrls.port        87680                       # Cumulative packet size per connected master and slave (bytes)
system.membus.pkt_size::total                   87680                       # Cumulative packet size per connected master and slave (bytes)
system.membus.snoops                                0                       # Total snoops (count)
system.membus.snoopTraffic                          0                       # Total snoop traffic (bytes)
system.membus.snoop_fanout::samples              1371                       # Request fanout histogram
system.membus.snoop_fanout::mean                    0                       # Request fanout histogram
system.membus.snoop_fanout::stdev                   0                       # Request fanout histogram
system.membus.snoop_fanout::underflows              0      0.00%      0.00% # Request fanout histogram
system.membus.snoop_fanout::0                    1371    100.00%    100.00% # Request fanout histogram
system.membus.snoop_fanout::1                       0      0.00%    100.00% # Request fanout histogram
system.membus.snoop_fanout::overflows               0      0.00%    100.00% # Request fanout histogram
system.membus.snoop_fanout::min_value               0                       # Request fanout histogram
system.membus.snoop_fanout::max_value               0                       # Request fanout histogram
system.membus.snoop_fanout::total                1371                       # Request fanout histogram
system.membus.reqLayer0.occupancy             1929281                       # Layer occupancy (ticks)
system.membus.reqLayer0.utilization               0.0                       # Layer utilization (%)
system.membus.respLayer1.occupancy            7226806                       # Layer occupancy (ticks)
system.membus.respLayer1.utilization              0.1                       # Layer utilization (%)
system.tol2bus.snoop_filter.tot_requests         2056                       # Total number of requests made to the snoop filter.
system.tol2bus.snoop_filter.hit_single_requests          436                       # Number of requests hitting in the snoop filter with a single holder of the requested data.
system.tol2bus.snoop_filter.hit_multi_requests            3                       # Number of requests hitting in the snoop filter with multiple (>1) holders of the requested data.
system.tol2bus.snoop_filter.tot_snoops             52                       # Total number of snoops made to the snoop filter.
system.tol2bus.snoop_filter.hit_single_snoops           52                       # Number of snoops hitting in the snoop filter with a single holder of the requested data.
system.tol2bus.snoop_filter.hit_multi_snoops            0                       # Number of snoops hitting in the snoop filter with multiple (>1) holders of the requested data.
system.tol2bus.pwrStateResidencyTicks::UNDEFINED   7464174500                       # Cumulative time (in ticks) in various power states
system.tol2bus.trans_dist::ReadResp               797                       # Transaction distribution
system.tol2bus.trans_dist::WritebackDirty          160                       # Transaction distribution
system.tol2bus.trans_dist::WritebackClean          262                       # Transaction distribution
system.tol2bus.trans_dist::HardPFReq              821                       # Transaction distribution
system.tol2bus.trans_dist::ReadExReq              836                       # Transaction distribution
system.tol2bus.trans_dist::ReadExResp             836                       # Transaction distribution
system.tol2bus.trans_dist::ReadCleanReq           617                       # Transaction distribution
system.tol2bus.trans_dist::ReadSharedReq          181                       # Transaction distribution
system.tol2bus.pkt_count_system.cpu.icache.mem_side::system.l2.cpu_side         1444                       # Packet count per connected master and slave (bytes)
system.tol2bus.pkt_count_system.cpu.dcache.mem_side::system.l2.cpu_side         2245                       # Packet count per connected master and slave (bytes)
system.tol2bus.pkt_count::total                  3689                       # Packet count per connected master and slave (bytes)
system.tol2bus.pkt_size_system.cpu.icache.mem_side::system.l2.cpu_side        52928                       # Cumulative packet size per connected master and slave (bytes)
system.tol2bus.pkt_size_system.cpu.dcache.mem_side::system.l2.cpu_side        78592                       # Cumulative packet size per connected master and slave (bytes)
system.tol2bus.pkt_size::total                 131520                       # Cumulative packet size per connected master and slave (bytes)
system.tol2bus.snoops                             821                       # Total snoops (count)
system.tol2bus.snoopTraffic                         0                       # Total snoop traffic (bytes)
system.tol2bus.snoop_fanout::samples             2455                       # Request fanout histogram
system.tol2bus.snoop_fanout::mean            0.028106                       # Request fanout histogram
system.tol2bus.snoop_fanout::stdev           0.165309                       # Request fanout histogram
system.tol2bus.snoop_fanout::underflows             0      0.00%      0.00% # Request fanout histogram
system.tol2bus.snoop_fanout::0                   2386     97.19%     97.19% # Request fanout histogram
system.tol2bus.snoop_fanout::1                     69      2.81%    100.00% # Request fanout histogram
system.tol2bus.snoop_fanout::2                      0      0.00%    100.00% # Request fanout histogram
system.tol2bus.snoop_fanout::3                      0      0.00%    100.00% # Request fanout histogram
system.tol2bus.snoop_fanout::4                      0      0.00%    100.00% # Request fanout histogram
system.tol2bus.snoop_fanout::overflows              0      0.00%    100.00% # Request fanout histogram
system.tol2bus.snoop_fanout::min_value              0                       # Request fanout histogram
system.tol2bus.snoop_fanout::max_value              1                       # Request fanout histogram
system.tol2bus.snoop_fanout::total               2455                       # Request fanout histogram
system.tol2bus.reqLayer0.occupancy            1450000                       # Layer occupancy (ticks)
system.tol2bus.reqLayer0.utilization              0.0                       # Layer utilization (%)
system.tol2bus.respLayer0.occupancy            924000                       # Layer occupancy (ticks)
system.tol2bus.respLayer0.utilization             0.0                       # Layer utilization (%)
system.tol2bus.respLayer1.occupancy           1526498                       # Layer occupancy (ticks)
system.tol2bus.respLayer1.utilization             0.0                       # Layer utilization (%)

---------- End Simulation Statistics   ----------
