
---------- Begin Simulation Statistics ----------
sim_seconds                                  0.060862                       # Number of seconds simulated
sim_ticks                                 60862145500                       # Number of ticks simulated
final_tick                                60862145500                       # Number of ticks from beginning of simulation (restored from checkpoints and never reset)
sim_freq                                 1000000000000                       # Frequency of simulated ticks
host_inst_rate                                 383606                       # Simulator instruction rate (inst/s)
host_op_rate                                   437304                       # Simulator op (including micro ops) rate (op/s)
host_tick_rate                              124179266                       # Simulator tick rate (ticks/s)
host_mem_usage                                 678624                       # Number of bytes of host memory used
host_seconds                                   490.12                       # Real time elapsed on the host
sim_insts                                   188011050                       # Number of instructions simulated
sim_ops                                     214329226                       # Number of ops (including micro ops) simulated
system.voltage_domain.voltage                       1                       # Voltage in Volts
system.clk_domain.clock                          1000                       # Clock period in ticks
system.mem_ctrls.pwrStateResidencyTicks::UNDEFINED  60862145500                       # Cumulative time (in ticks) in various power states
system.mem_ctrls.bytes_read::cpu.inst           88576                       # Number of bytes read from this memory
system.mem_ctrls.bytes_read::cpu.data           58880                       # Number of bytes read from this memory
system.mem_ctrls.bytes_read::l2.prefetcher       125632                       # Number of bytes read from this memory
system.mem_ctrls.bytes_read::total             273088                       # Number of bytes read from this memory
system.mem_ctrls.bytes_inst_read::cpu.inst        88576                       # Number of instructions bytes read from this memory
system.mem_ctrls.bytes_inst_read::total         88576                       # Number of instructions bytes read from this memory
system.mem_ctrls.num_reads::cpu.inst             1384                       # Number of read requests responded to by this memory
system.mem_ctrls.num_reads::cpu.data              920                       # Number of read requests responded to by this memory
system.mem_ctrls.num_reads::l2.prefetcher         1963                       # Number of read requests responded to by this memory
system.mem_ctrls.num_reads::total                4267                       # Number of read requests responded to by this memory
system.mem_ctrls.bw_read::cpu.inst            1455355                       # Total read bandwidth from this memory (bytes/s)
system.mem_ctrls.bw_read::cpu.data             967432                       # Total read bandwidth from this memory (bytes/s)
system.mem_ctrls.bw_read::l2.prefetcher       2064206                       # Total read bandwidth from this memory (bytes/s)
system.mem_ctrls.bw_read::total               4486993                       # Total read bandwidth from this memory (bytes/s)
system.mem_ctrls.bw_inst_read::cpu.inst       1455355                       # Instruction read bandwidth from this memory (bytes/s)
system.mem_ctrls.bw_inst_read::total          1455355                       # Instruction read bandwidth from this memory (bytes/s)
system.mem_ctrls.bw_total::cpu.inst           1455355                       # Total bandwidth to/from this memory (bytes/s)
system.mem_ctrls.bw_total::cpu.data            967432                       # Total bandwidth to/from this memory (bytes/s)
system.mem_ctrls.bw_total::l2.prefetcher      2064206                       # Total bandwidth to/from this memory (bytes/s)
system.mem_ctrls.bw_total::total              4486993                       # Total bandwidth to/from this memory (bytes/s)
system.mem_ctrls.readReqs                        4267                       # Number of read requests accepted
system.mem_ctrls.writeReqs                          0                       # Number of write requests accepted
system.mem_ctrls.readBursts                      4267                       # Number of DRAM read bursts, including those serviced by the write queue
system.mem_ctrls.writeBursts                        0                       # Number of DRAM write bursts, including those merged in the write queue
system.mem_ctrls.bytesReadDRAM                 273088                       # Total number of bytes read from DRAM
system.mem_ctrls.bytesReadWrQ                       0                       # Total number of bytes read from write queue
system.mem_ctrls.bytesWritten                       0                       # Total number of bytes written to DRAM
system.mem_ctrls.bytesReadSys                  273088                       # Total read bytes from the system interface side
system.mem_ctrls.bytesWrittenSys                    0                       # Total written bytes from the system interface side
system.mem_ctrls.servicedByWrQ                      0                       # Number of DRAM read bursts serviced by the write queue
system.mem_ctrls.mergedWrBursts                     0                       # Number of DRAM write bursts merged with an existing one
system.mem_ctrls.neitherReadNorWriteReqs            0                       # Number of requests that are neither read nor write
system.mem_ctrls.perBankRdBursts::0               374                       # Per bank write bursts
system.mem_ctrls.perBankRdBursts::1               324                       # Per bank write bursts
system.mem_ctrls.perBankRdBursts::2               281                       # Per bank write bursts
system.mem_ctrls.perBankRdBursts::3               383                       # Per bank write bursts
system.mem_ctrls.perBankRdBursts::4               214                       # Per bank write bursts
system.mem_ctrls.perBankRdBursts::5               266                       # Per bank write bursts
system.mem_ctrls.perBankRdBursts::6               164                       # Per bank write bursts
system.mem_ctrls.perBankRdBursts::7               192                       # Per bank write bursts
system.mem_ctrls.perBankRdBursts::8               248                       # Per bank write bursts
system.mem_ctrls.perBankRdBursts::9               189                       # Per bank write bursts
system.mem_ctrls.perBankRdBursts::10              252                       # Per bank write bursts
system.mem_ctrls.perBankRdBursts::11              282                       # Per bank write bursts
system.mem_ctrls.perBankRdBursts::12              316                       # Per bank write bursts
system.mem_ctrls.perBankRdBursts::13              309                       # Per bank write bursts
system.mem_ctrls.perBankRdBursts::14              219                       # Per bank write bursts
system.mem_ctrls.perBankRdBursts::15              254                       # Per bank write bursts
system.mem_ctrls.perBankWrBursts::0                 0                       # Per bank write bursts
system.mem_ctrls.perBankWrBursts::1                 0                       # Per bank write bursts
system.mem_ctrls.perBankWrBursts::2                 0                       # Per bank write bursts
system.mem_ctrls.perBankWrBursts::3                 0                       # Per bank write bursts
system.mem_ctrls.perBankWrBursts::4                 0                       # Per bank write bursts
system.mem_ctrls.perBankWrBursts::5                 0                       # Per bank write bursts
system.mem_ctrls.perBankWrBursts::6                 0                       # Per bank write bursts
system.mem_ctrls.perBankWrBursts::7                 0                       # Per bank write bursts
system.mem_ctrls.perBankWrBursts::8                 0                       # Per bank write bursts
system.mem_ctrls.perBankWrBursts::9                 0                       # Per bank write bursts
system.mem_ctrls.perBankWrBursts::10                0                       # Per bank write bursts
system.mem_ctrls.perBankWrBursts::11                0                       # Per bank write bursts
system.mem_ctrls.perBankWrBursts::12                0                       # Per bank write bursts
system.mem_ctrls.perBankWrBursts::13                0                       # Per bank write bursts
system.mem_ctrls.perBankWrBursts::14                0                       # Per bank write bursts
system.mem_ctrls.perBankWrBursts::15                0                       # Per bank write bursts
system.mem_ctrls.numRdRetry                         0                       # Number of times read queue was full causing retry
system.mem_ctrls.numWrRetry                         0                       # Number of times write queue was full causing retry
system.mem_ctrls.totGap                   60862039500                       # Total gap between requests
system.mem_ctrls.readPktSize::0                     0                       # Read request sizes (log2)
system.mem_ctrls.readPktSize::1                     0                       # Read request sizes (log2)
system.mem_ctrls.readPktSize::2                     0                       # Read request sizes (log2)
system.mem_ctrls.readPktSize::3                     0                       # Read request sizes (log2)
system.mem_ctrls.readPktSize::4                     0                       # Read request sizes (log2)
system.mem_ctrls.readPktSize::5                     0                       # Read request sizes (log2)
system.mem_ctrls.readPktSize::6                  4267                       # Read request sizes (log2)
system.mem_ctrls.writePktSize::0                    0                       # Write request sizes (log2)
system.mem_ctrls.writePktSize::1                    0                       # Write request sizes (log2)
system.mem_ctrls.writePktSize::2                    0                       # Write request sizes (log2)
system.mem_ctrls.writePktSize::3                    0                       # Write request sizes (log2)
system.mem_ctrls.writePktSize::4                    0                       # Write request sizes (log2)
system.mem_ctrls.writePktSize::5                    0                       # Write request sizes (log2)
system.mem_ctrls.writePktSize::6                    0                       # Write request sizes (log2)
system.mem_ctrls.rdQLenPdf::0                    2685                       # What read queue length does an incoming req see
system.mem_ctrls.rdQLenPdf::1                     642                       # What read queue length does an incoming req see
system.mem_ctrls.rdQLenPdf::2                     206                       # What read queue length does an incoming req see
system.mem_ctrls.rdQLenPdf::3                     104                       # What read queue length does an incoming req see
system.mem_ctrls.rdQLenPdf::4                      71                       # What read queue length does an incoming req see
system.mem_ctrls.rdQLenPdf::5                      60                       # What read queue length does an incoming req see
system.mem_ctrls.rdQLenPdf::6                      70                       # What read queue length does an incoming req see
system.mem_ctrls.rdQLenPdf::7                     155                       # What read queue length does an incoming req see
system.mem_ctrls.rdQLenPdf::8                     136                       # What read queue length does an incoming req see
system.mem_ctrls.rdQLenPdf::9                      43                       # What read queue length does an incoming req see
system.mem_ctrls.rdQLenPdf::10                     32                       # What read queue length does an incoming req see
system.mem_ctrls.rdQLenPdf::11                     24                       # What read queue length does an incoming req see
system.mem_ctrls.rdQLenPdf::12                     20                       # What read queue length does an incoming req see
system.mem_ctrls.rdQLenPdf::13                     18                       # What read queue length does an incoming req see
system.mem_ctrls.rdQLenPdf::14                      1                       # What read queue length does an incoming req see
system.mem_ctrls.rdQLenPdf::15                      0                       # What read queue length does an incoming req see
system.mem_ctrls.rdQLenPdf::16                      0                       # What read queue length does an incoming req see
system.mem_ctrls.rdQLenPdf::17                      0                       # What read queue length does an incoming req see
system.mem_ctrls.rdQLenPdf::18                      0                       # What read queue length does an incoming req see
system.mem_ctrls.rdQLenPdf::19                      0                       # What read queue length does an incoming req see
system.mem_ctrls.rdQLenPdf::20                      0                       # What read queue length does an incoming req see
system.mem_ctrls.rdQLenPdf::21                      0                       # What read queue length does an incoming req see
system.mem_ctrls.rdQLenPdf::22                      0                       # What read queue length does an incoming req see
system.mem_ctrls.rdQLenPdf::23                      0                       # What read queue length does an incoming req see
system.mem_ctrls.rdQLenPdf::24                      0                       # What read queue length does an incoming req see
system.mem_ctrls.rdQLenPdf::25                      0                       # What read queue length does an incoming req see
system.mem_ctrls.rdQLenPdf::26                      0                       # What read queue length does an incoming req see
system.mem_ctrls.rdQLenPdf::27                      0                       # What read queue length does an incoming req see
system.mem_ctrls.rdQLenPdf::28                      0                       # What read queue length does an incoming req see
system.mem_ctrls.rdQLenPdf::29                      0                       # What read queue length does an incoming req see
system.mem_ctrls.rdQLenPdf::30                      0                       # What read queue length does an incoming req see
system.mem_ctrls.rdQLenPdf::31                      0                       # What read queue length does an incoming req see
system.mem_ctrls.wrQLenPdf::0                       0                       # What write queue length does an incoming req see
system.mem_ctrls.wrQLenPdf::1                       0                       # What write queue length does an incoming req see
system.mem_ctrls.wrQLenPdf::2                       0                       # What write queue length does an incoming req see
system.mem_ctrls.wrQLenPdf::3                       0                       # What write queue length does an incoming req see
system.mem_ctrls.wrQLenPdf::4                       0                       # What write queue length does an incoming req see
system.mem_ctrls.wrQLenPdf::5                       0                       # What write queue length does an incoming req see
system.mem_ctrls.wrQLenPdf::6                       0                       # What write queue length does an incoming req see
system.mem_ctrls.wrQLenPdf::7                       0                       # What write queue length does an incoming req see
system.mem_ctrls.wrQLenPdf::8                       0                       # What write queue length does an incoming req see
system.mem_ctrls.wrQLenPdf::9                       0                       # What write queue length does an incoming req see
system.mem_ctrls.wrQLenPdf::10                      0                       # What write queue length does an incoming req see
system.mem_ctrls.wrQLenPdf::11                      0                       # What write queue length does an incoming req see
system.mem_ctrls.wrQLenPdf::12                      0                       # What write queue length does an incoming req see
system.mem_ctrls.wrQLenPdf::13                      0                       # What write queue length does an incoming req see
system.mem_ctrls.wrQLenPdf::14                      0                       # What write queue length does an incoming req see
system.mem_ctrls.wrQLenPdf::15                      0                       # What write queue length does an incoming req see
system.mem_ctrls.wrQLenPdf::16                      0                       # What write queue length does an incoming req see
system.mem_ctrls.wrQLenPdf::17                      0                       # What write queue length does an incoming req see
system.mem_ctrls.wrQLenPdf::18                      0                       # What write queue length does an incoming req see
system.mem_ctrls.wrQLenPdf::19                      0                       # What write queue length does an incoming req see
system.mem_ctrls.wrQLenPdf::20                      0                       # What write queue length does an incoming req see
system.mem_ctrls.wrQLenPdf::21                      0                       # What write queue length does an incoming req see
system.mem_ctrls.wrQLenPdf::22                      0                       # What write queue length does an incoming req see
system.mem_ctrls.wrQLenPdf::23                      0                       # What write queue length does an incoming req see
system.mem_ctrls.wrQLenPdf::24                      0                       # What write queue length does an incoming req see
system.mem_ctrls.wrQLenPdf::25                      0                       # What write queue length does an incoming req see
system.mem_ctrls.wrQLenPdf::26                      0                       # What write queue length does an incoming req see
system.mem_ctrls.wrQLenPdf::27                      0                       # What write queue length does an incoming req see
system.mem_ctrls.wrQLenPdf::28                      0                       # What write queue length does an incoming req see
system.mem_ctrls.wrQLenPdf::29                      0                       # What write queue length does an incoming req see
system.mem_ctrls.wrQLenPdf::30                      0                       # What write queue length does an incoming req see
system.mem_ctrls.wrQLenPdf::31                      0                       # What write queue length does an incoming req see
system.mem_ctrls.wrQLenPdf::32                      0                       # What write queue length does an incoming req see
system.mem_ctrls.wrQLenPdf::33                      0                       # What write queue length does an incoming req see
system.mem_ctrls.wrQLenPdf::34                      0                       # What write queue length does an incoming req see
system.mem_ctrls.wrQLenPdf::35                      0                       # What write queue length does an incoming req see
system.mem_ctrls.wrQLenPdf::36                      0                       # What write queue length does an incoming req see
system.mem_ctrls.wrQLenPdf::37                      0                       # What write queue length does an incoming req see
system.mem_ctrls.wrQLenPdf::38                      0                       # What write queue length does an incoming req see
system.mem_ctrls.wrQLenPdf::39                      0                       # What write queue length does an incoming req see
system.mem_ctrls.wrQLenPdf::40                      0                       # What write queue length does an incoming req see
system.mem_ctrls.wrQLenPdf::41                      0                       # What write queue length does an incoming req see
system.mem_ctrls.wrQLenPdf::42                      0                       # What write queue length does an incoming req see
system.mem_ctrls.wrQLenPdf::43                      0                       # What write queue length does an incoming req see
system.mem_ctrls.wrQLenPdf::44                      0                       # What write queue length does an incoming req see
system.mem_ctrls.wrQLenPdf::45                      0                       # What write queue length does an incoming req see
system.mem_ctrls.wrQLenPdf::46                      0                       # What write queue length does an incoming req see
system.mem_ctrls.wrQLenPdf::47                      0                       # What write queue length does an incoming req see
system.mem_ctrls.wrQLenPdf::48                      0                       # What write queue length does an incoming req see
system.mem_ctrls.wrQLenPdf::49                      0                       # What write queue length does an incoming req see
system.mem_ctrls.wrQLenPdf::50                      0                       # What write queue length does an incoming req see
system.mem_ctrls.wrQLenPdf::51                      0                       # What write queue length does an incoming req see
system.mem_ctrls.wrQLenPdf::52                      0                       # What write queue length does an incoming req see
system.mem_ctrls.wrQLenPdf::53                      0                       # What write queue length does an incoming req see
system.mem_ctrls.wrQLenPdf::54                      0                       # What write queue length does an incoming req see
system.mem_ctrls.wrQLenPdf::55                      0                       # What write queue length does an incoming req see
system.mem_ctrls.wrQLenPdf::56                      0                       # What write queue length does an incoming req see
system.mem_ctrls.wrQLenPdf::57                      0                       # What write queue length does an incoming req see
system.mem_ctrls.wrQLenPdf::58                      0                       # What write queue length does an incoming req see
system.mem_ctrls.wrQLenPdf::59                      0                       # What write queue length does an incoming req see
system.mem_ctrls.wrQLenPdf::60                      0                       # What write queue length does an incoming req see
system.mem_ctrls.wrQLenPdf::61                      0                       # What write queue length does an incoming req see
system.mem_ctrls.wrQLenPdf::62                      0                       # What write queue length does an incoming req see
system.mem_ctrls.wrQLenPdf::63                      0                       # What write queue length does an incoming req see
system.mem_ctrls.bytesPerActivate::samples         1316                       # Bytes accessed per row activation
system.mem_ctrls.bytesPerActivate::mean    205.568389                       # Bytes accessed per row activation
system.mem_ctrls.bytesPerActivate::gmean   133.073665                       # Bytes accessed per row activation
system.mem_ctrls.bytesPerActivate::stdev   247.221978                       # Bytes accessed per row activation
system.mem_ctrls.bytesPerActivate::0-127          560     42.55%     42.55% # Bytes accessed per row activation
system.mem_ctrls.bytesPerActivate::128-255          487     37.01%     79.56% # Bytes accessed per row activation
system.mem_ctrls.bytesPerActivate::256-383           79      6.00%     85.56% # Bytes accessed per row activation
system.mem_ctrls.bytesPerActivate::384-511           38      2.89%     88.45% # Bytes accessed per row activation
system.mem_ctrls.bytesPerActivate::512-639           26      1.98%     90.43% # Bytes accessed per row activation
system.mem_ctrls.bytesPerActivate::640-767           37      2.81%     93.24% # Bytes accessed per row activation
system.mem_ctrls.bytesPerActivate::768-895           12      0.91%     94.15% # Bytes accessed per row activation
system.mem_ctrls.bytesPerActivate::896-1023           10      0.76%     94.91% # Bytes accessed per row activation
system.mem_ctrls.bytesPerActivate::1024-1151           67      5.09%    100.00% # Bytes accessed per row activation
system.mem_ctrls.bytesPerActivate::total         1316                       # Bytes accessed per row activation
system.mem_ctrls.totQLat                    405276087                       # Total ticks spent queuing
system.mem_ctrls.totMemAccLat               485282337                       # Total ticks spent from burst creation until serviced by the DRAM
system.mem_ctrls.totBusLat                   21335000                       # Total ticks spent in databus transfers
system.mem_ctrls.avgQLat                     94979.16                       # Average queueing delay per DRAM burst
system.mem_ctrls.avgBusLat                    5000.00                       # Average bus latency per DRAM burst
system.mem_ctrls.avgMemAccLat               113729.16                       # Average memory access latency per DRAM burst
system.mem_ctrls.avgRdBW                         4.49                       # Average DRAM read bandwidth in MiByte/s
system.mem_ctrls.avgWrBW                         0.00                       # Average achieved write bandwidth in MiByte/s
system.mem_ctrls.avgRdBWSys                      4.49                       # Average system read bandwidth in MiByte/s
system.mem_ctrls.avgWrBWSys                      0.00                       # Average system write bandwidth in MiByte/s
system.mem_ctrls.peakBW                      12800.00                       # Theoretical peak bandwidth in MiByte/s
system.mem_ctrls.busUtil                         0.04                       # Data bus utilization in percentage
system.mem_ctrls.busUtilRead                     0.04                       # Data bus utilization in percentage for reads
system.mem_ctrls.busUtilWrite                    0.00                       # Data bus utilization in percentage for writes
system.mem_ctrls.avgRdQLen                       1.06                       # Average read queue length when enqueuing
system.mem_ctrls.avgWrQLen                       0.00                       # Average write queue length when enqueuing
system.mem_ctrls.readRowHits                     2938                       # Number of row buffer hits during reads
system.mem_ctrls.writeRowHits                       0                       # Number of row buffer hits during writes
system.mem_ctrls.readRowHitRate                 68.85                       # Row buffer hit rate for reads
system.mem_ctrls.writeRowHitRate                  nan                       # Row buffer hit rate for writes
system.mem_ctrls.avgGap                   14263426.18                       # Average gap between requests
system.mem_ctrls.pageHitRate                    68.85                       # Row buffer hit rate, read and write combined
system.mem_ctrls_0.actEnergy                  5269320                       # Energy for activate commands per rank (pJ)
system.mem_ctrls_0.preEnergy                  2781735                       # Energy for precharge commands per rank (pJ)
system.mem_ctrls_0.readEnergy                15693720                       # Energy for read commands per rank (pJ)
system.mem_ctrls_0.writeEnergy                      0                       # Energy for write commands per rank (pJ)
system.mem_ctrls_0.refreshEnergy         472658160.000000                       # Energy for refresh commands per rank (pJ)
system.mem_ctrls_0.actBackEnergy            111860220                       # Energy for active background per rank (pJ)
system.mem_ctrls_0.preBackEnergy             27878880                       # Energy for precharge background per rank (pJ)
system.mem_ctrls_0.actPowerDownEnergy      1106835690                       # Energy for active power-down per rank (pJ)
system.mem_ctrls_0.prePowerDownEnergy       681759840                       # Energy for precharge power-down per rank (pJ)
system.mem_ctrls_0.selfRefreshEnergy      13634105925                       # Energy for self refresh per rank (pJ)
system.mem_ctrls_0.totalEnergy            16058950230                       # Total energy per rank (pJ)
system.mem_ctrls_0.averagePower            263.857771                       # Core power per rank (mW)
system.mem_ctrls_0.totalIdleTime          60543957521                       # Total Idle time Per DRAM Rank
system.mem_ctrls_0.memoryStateTime::IDLE     55753000                       # Time in different power states
system.mem_ctrls_0.memoryStateTime::REF     201176000                       # Time in different power states
system.mem_ctrls_0.memoryStateTime::SREF  56341308500                       # Time in different power states
system.mem_ctrls_0.memoryStateTime::PRE_PDN   1775398673                       # Time in different power states
system.mem_ctrls_0.memoryStateTime::ACT      61201229                       # Time in different power states
system.mem_ctrls_0.memoryStateTime::ACT_PDN   2427308098                       # Time in different power states
system.mem_ctrls_1.actEnergy                  4219740                       # Energy for activate commands per rank (pJ)
system.mem_ctrls_1.preEnergy                  2212485                       # Energy for precharge commands per rank (pJ)
system.mem_ctrls_1.readEnergy                14772660                       # Energy for read commands per rank (pJ)
system.mem_ctrls_1.writeEnergy                      0                       # Energy for write commands per rank (pJ)
system.mem_ctrls_1.refreshEnergy         567927360.000000                       # Energy for refresh commands per rank (pJ)
system.mem_ctrls_1.actBackEnergy            125917560                       # Energy for active background per rank (pJ)
system.mem_ctrls_1.preBackEnergy             35478720                       # Energy for precharge background per rank (pJ)
system.mem_ctrls_1.actPowerDownEnergy      1219240260                       # Energy for active power-down per rank (pJ)
system.mem_ctrls_1.prePowerDownEnergy       856067040                       # Energy for precharge power-down per rank (pJ)
system.mem_ctrls_1.selfRefreshEnergy      13488617040                       # Energy for self refresh per rank (pJ)
system.mem_ctrls_1.totalEnergy            16314452865                       # Total energy per rank (pJ)
system.mem_ctrls_1.averagePower            268.055826                       # Core power per rank (mW)
system.mem_ctrls_1.totalIdleTime          60493582501                       # Total Idle time Per DRAM Rank
system.mem_ctrls_1.memoryStateTime::IDLE     72672000                       # Time in different power states
system.mem_ctrls_1.memoryStateTime::REF     241836000                       # Time in different power states
system.mem_ctrls_1.memoryStateTime::SREF  55590511500                       # Time in different power states
system.mem_ctrls_1.memoryStateTime::PRE_PDN   2229349285                       # Time in different power states
system.mem_ctrls_1.memoryStateTime::ACT      53989749                       # Time in different power states
system.mem_ctrls_1.memoryStateTime::ACT_PDN   2673786966                       # Time in different power states
system.pwrStateResidencyTicks::UNDEFINED  60862145500                       # Cumulative time (in ticks) in various power states
system.cpu.branchPred.lookups                32616224                       # Number of BP lookups
system.cpu.branchPred.condPredicted           6028010                       # Number of conditional branches predicted
system.cpu.branchPred.condIncorrect           1194251                       # Number of conditional branches incorrect
system.cpu.branchPred.BTBLookups             19765475                       # Number of BTB lookups
system.cpu.branchPred.BTBHits                19080786                       # Number of BTB hits
system.cpu.branchPred.BTBCorrect                    0                       # Number of correct BTB predictions (this stat may not work properly.
system.cpu.branchPred.BTBHitPct             96.535935                       # BTB Hit Percentage
system.cpu.branchPred.usedRAS                12453148                       # Number of times the RAS was used to get a target.
system.cpu.branchPred.RASInCorrect                121                       # Number of incorrect RAS predictions.
system.cpu.branchPred.indirectLookups           15105                       # Number of indirect predictor lookups.
system.cpu.branchPred.indirectHits               7698                       # Number of indirect target hits.
system.cpu.branchPred.indirectMisses             7407                       # Number of indirect misses.
system.cpu.branchPredindirectMispredicted          194                       # Number of mispredicted indirect branches.
system.cpu.branchPred.atLeastOneCorrectExpert       632876                       # Number of mispredicts where there was at least one correct not-selected scheme.
system.cpu.branchPred.allExpertsSame         26478646                       # Number of times all experts voted in the same direction.
system.cpu.branchPred.lowWeightExpertsWon       156689                       # Number of times where lower weighted experts overrode the highest weight expert.
system.cpu_voltage_domain.voltage                   1                       # Voltage in Volts
system.cpu_clk_domain.clock                       500                       # Clock period in ticks
system.cpu.dstage2_mmu.stage2_tlb.walker.pwrStateResidencyTicks::UNDEFINED  60862145500                       # Cumulative time (in ticks) in various power states
system.cpu.dstage2_mmu.stage2_tlb.walker.walks            0                       # Table walker walks requested
system.cpu.dstage2_mmu.stage2_tlb.walker.walkRequestOrigin_Requested::Data            0                       # Table walker requests started/completed, data/inst
system.cpu.dstage2_mmu.stage2_tlb.walker.walkRequestOrigin_Requested::Inst            0                       # Table walker requests started/completed, data/inst
system.cpu.dstage2_mmu.stage2_tlb.walker.walkRequestOrigin_Requested::total            0                       # Table walker requests started/completed, data/inst
system.cpu.dstage2_mmu.stage2_tlb.walker.walkRequestOrigin_Completed::Data            0                       # Table walker requests started/completed, data/inst
system.cpu.dstage2_mmu.stage2_tlb.walker.walkRequestOrigin_Completed::Inst            0                       # Table walker requests started/completed, data/inst
system.cpu.dstage2_mmu.stage2_tlb.walker.walkRequestOrigin_Completed::total            0                       # Table walker requests started/completed, data/inst
system.cpu.dstage2_mmu.stage2_tlb.walker.walkRequestOrigin::total            0                       # Table walker requests started/completed, data/inst
system.cpu.dstage2_mmu.stage2_tlb.inst_hits            0                       # ITB inst hits
system.cpu.dstage2_mmu.stage2_tlb.inst_misses            0                       # ITB inst misses
system.cpu.dstage2_mmu.stage2_tlb.read_hits            0                       # DTB read hits
system.cpu.dstage2_mmu.stage2_tlb.read_misses            0                       # DTB read misses
system.cpu.dstage2_mmu.stage2_tlb.write_hits            0                       # DTB write hits
system.cpu.dstage2_mmu.stage2_tlb.write_misses            0                       # DTB write misses
system.cpu.dstage2_mmu.stage2_tlb.flush_tlb            0                       # Number of times complete TLB was flushed
system.cpu.dstage2_mmu.stage2_tlb.flush_tlb_mva            0                       # Number of times TLB was flushed by MVA
system.cpu.dstage2_mmu.stage2_tlb.flush_tlb_mva_asid            0                       # Number of times TLB was flushed by MVA & ASID
system.cpu.dstage2_mmu.stage2_tlb.flush_tlb_asid            0                       # Number of times TLB was flushed by ASID
system.cpu.dstage2_mmu.stage2_tlb.flush_entries            0                       # Number of entries that have been flushed from TLB
system.cpu.dstage2_mmu.stage2_tlb.align_faults            0                       # Number of TLB faults due to alignment restrictions
system.cpu.dstage2_mmu.stage2_tlb.prefetch_faults            0                       # Number of TLB faults due to prefetch
system.cpu.dstage2_mmu.stage2_tlb.domain_faults            0                       # Number of TLB faults due to domain restrictions
system.cpu.dstage2_mmu.stage2_tlb.perms_faults            0                       # Number of TLB faults due to permissions restrictions
system.cpu.dstage2_mmu.stage2_tlb.read_accesses            0                       # DTB read accesses
system.cpu.dstage2_mmu.stage2_tlb.write_accesses            0                       # DTB write accesses
system.cpu.dstage2_mmu.stage2_tlb.inst_accesses            0                       # ITB inst accesses
system.cpu.dstage2_mmu.stage2_tlb.hits              0                       # DTB hits
system.cpu.dstage2_mmu.stage2_tlb.misses            0                       # DTB misses
system.cpu.dstage2_mmu.stage2_tlb.accesses            0                       # DTB accesses
system.cpu.dtb.walker.pwrStateResidencyTicks::UNDEFINED  60862145500                       # Cumulative time (in ticks) in various power states
system.cpu.dtb.walker.walks                         0                       # Table walker walks requested
system.cpu.dtb.walker.walkRequestOrigin_Requested::Data            0                       # Table walker requests started/completed, data/inst
system.cpu.dtb.walker.walkRequestOrigin_Requested::Inst            0                       # Table walker requests started/completed, data/inst
system.cpu.dtb.walker.walkRequestOrigin_Requested::total            0                       # Table walker requests started/completed, data/inst
system.cpu.dtb.walker.walkRequestOrigin_Completed::Data            0                       # Table walker requests started/completed, data/inst
system.cpu.dtb.walker.walkRequestOrigin_Completed::Inst            0                       # Table walker requests started/completed, data/inst
system.cpu.dtb.walker.walkRequestOrigin_Completed::total            0                       # Table walker requests started/completed, data/inst
system.cpu.dtb.walker.walkRequestOrigin::total            0                       # Table walker requests started/completed, data/inst
system.cpu.dtb.inst_hits                            0                       # ITB inst hits
system.cpu.dtb.inst_misses                          0                       # ITB inst misses
system.cpu.dtb.read_hits                            0                       # DTB read hits
system.cpu.dtb.read_misses                          0                       # DTB read misses
system.cpu.dtb.write_hits                           0                       # DTB write hits
system.cpu.dtb.write_misses                         0                       # DTB write misses
system.cpu.dtb.flush_tlb                            0                       # Number of times complete TLB was flushed
system.cpu.dtb.flush_tlb_mva                        0                       # Number of times TLB was flushed by MVA
system.cpu.dtb.flush_tlb_mva_asid                   0                       # Number of times TLB was flushed by MVA & ASID
system.cpu.dtb.flush_tlb_asid                       0                       # Number of times TLB was flushed by ASID
system.cpu.dtb.flush_entries                        0                       # Number of entries that have been flushed from TLB
system.cpu.dtb.align_faults                         0                       # Number of TLB faults due to alignment restrictions
system.cpu.dtb.prefetch_faults                      0                       # Number of TLB faults due to prefetch
system.cpu.dtb.domain_faults                        0                       # Number of TLB faults due to domain restrictions
system.cpu.dtb.perms_faults                         0                       # Number of TLB faults due to permissions restrictions
system.cpu.dtb.read_accesses                        0                       # DTB read accesses
system.cpu.dtb.write_accesses                       0                       # DTB write accesses
system.cpu.dtb.inst_accesses                        0                       # ITB inst accesses
system.cpu.dtb.hits                                 0                       # DTB hits
system.cpu.dtb.misses                               0                       # DTB misses
system.cpu.dtb.accesses                             0                       # DTB accesses
system.cpu.istage2_mmu.stage2_tlb.walker.pwrStateResidencyTicks::UNDEFINED  60862145500                       # Cumulative time (in ticks) in various power states
system.cpu.istage2_mmu.stage2_tlb.walker.walks            0                       # Table walker walks requested
system.cpu.istage2_mmu.stage2_tlb.walker.walkRequestOrigin_Requested::Data            0                       # Table walker requests started/completed, data/inst
system.cpu.istage2_mmu.stage2_tlb.walker.walkRequestOrigin_Requested::Inst            0                       # Table walker requests started/completed, data/inst
system.cpu.istage2_mmu.stage2_tlb.walker.walkRequestOrigin_Requested::total            0                       # Table walker requests started/completed, data/inst
system.cpu.istage2_mmu.stage2_tlb.walker.walkRequestOrigin_Completed::Data            0                       # Table walker requests started/completed, data/inst
system.cpu.istage2_mmu.stage2_tlb.walker.walkRequestOrigin_Completed::Inst            0                       # Table walker requests started/completed, data/inst
system.cpu.istage2_mmu.stage2_tlb.walker.walkRequestOrigin_Completed::total            0                       # Table walker requests started/completed, data/inst
system.cpu.istage2_mmu.stage2_tlb.walker.walkRequestOrigin::total            0                       # Table walker requests started/completed, data/inst
system.cpu.istage2_mmu.stage2_tlb.inst_hits            0                       # ITB inst hits
system.cpu.istage2_mmu.stage2_tlb.inst_misses            0                       # ITB inst misses
system.cpu.istage2_mmu.stage2_tlb.read_hits            0                       # DTB read hits
system.cpu.istage2_mmu.stage2_tlb.read_misses            0                       # DTB read misses
system.cpu.istage2_mmu.stage2_tlb.write_hits            0                       # DTB write hits
system.cpu.istage2_mmu.stage2_tlb.write_misses            0                       # DTB write misses
system.cpu.istage2_mmu.stage2_tlb.flush_tlb            0                       # Number of times complete TLB was flushed
system.cpu.istage2_mmu.stage2_tlb.flush_tlb_mva            0                       # Number of times TLB was flushed by MVA
system.cpu.istage2_mmu.stage2_tlb.flush_tlb_mva_asid            0                       # Number of times TLB was flushed by MVA & ASID
system.cpu.istage2_mmu.stage2_tlb.flush_tlb_asid            0                       # Number of times TLB was flushed by ASID
system.cpu.istage2_mmu.stage2_tlb.flush_entries            0                       # Number of entries that have been flushed from TLB
system.cpu.istage2_mmu.stage2_tlb.align_faults            0                       # Number of TLB faults due to alignment restrictions
system.cpu.istage2_mmu.stage2_tlb.prefetch_faults            0                       # Number of TLB faults due to prefetch
system.cpu.istage2_mmu.stage2_tlb.domain_faults            0                       # Number of TLB faults due to domain restrictions
system.cpu.istage2_mmu.stage2_tlb.perms_faults            0                       # Number of TLB faults due to permissions restrictions
system.cpu.istage2_mmu.stage2_tlb.read_accesses            0                       # DTB read accesses
system.cpu.istage2_mmu.stage2_tlb.write_accesses            0                       # DTB write accesses
system.cpu.istage2_mmu.stage2_tlb.inst_accesses            0                       # ITB inst accesses
system.cpu.istage2_mmu.stage2_tlb.hits              0                       # DTB hits
system.cpu.istage2_mmu.stage2_tlb.misses            0                       # DTB misses
system.cpu.istage2_mmu.stage2_tlb.accesses            0                       # DTB accesses
system.cpu.itb.walker.pwrStateResidencyTicks::UNDEFINED  60862145500                       # Cumulative time (in ticks) in various power states
system.cpu.itb.walker.walks                         0                       # Table walker walks requested
system.cpu.itb.walker.walkRequestOrigin_Requested::Data            0                       # Table walker requests started/completed, data/inst
system.cpu.itb.walker.walkRequestOrigin_Requested::Inst            0                       # Table walker requests started/completed, data/inst
system.cpu.itb.walker.walkRequestOrigin_Requested::total            0                       # Table walker requests started/completed, data/inst
system.cpu.itb.walker.walkRequestOrigin_Completed::Data            0                       # Table walker requests started/completed, data/inst
system.cpu.itb.walker.walkRequestOrigin_Completed::Inst            0                       # Table walker requests started/completed, data/inst
system.cpu.itb.walker.walkRequestOrigin_Completed::total            0                       # Table walker requests started/completed, data/inst
system.cpu.itb.walker.walkRequestOrigin::total            0                       # Table walker requests started/completed, data/inst
system.cpu.itb.inst_hits                            0                       # ITB inst hits
system.cpu.itb.inst_misses                          0                       # ITB inst misses
system.cpu.itb.read_hits                            0                       # DTB read hits
system.cpu.itb.read_misses                          0                       # DTB read misses
system.cpu.itb.write_hits                           0                       # DTB write hits
system.cpu.itb.write_misses                         0                       # DTB write misses
system.cpu.itb.flush_tlb                            0                       # Number of times complete TLB was flushed
system.cpu.itb.flush_tlb_mva                        0                       # Number of times TLB was flushed by MVA
system.cpu.itb.flush_tlb_mva_asid                   0                       # Number of times TLB was flushed by MVA & ASID
system.cpu.itb.flush_tlb_asid                       0                       # Number of times TLB was flushed by ASID
system.cpu.itb.flush_entries                        0                       # Number of entries that have been flushed from TLB
system.cpu.itb.align_faults                         0                       # Number of TLB faults due to alignment restrictions
system.cpu.itb.prefetch_faults                      0                       # Number of TLB faults due to prefetch
system.cpu.itb.domain_faults                        0                       # Number of TLB faults due to domain restrictions
system.cpu.itb.perms_faults                         0                       # Number of TLB faults due to permissions restrictions
system.cpu.itb.read_accesses                        0                       # DTB read accesses
system.cpu.itb.write_accesses                       0                       # DTB write accesses
system.cpu.itb.inst_accesses                        0                       # ITB inst accesses
system.cpu.itb.hits                                 0                       # DTB hits
system.cpu.itb.misses                               0                       # DTB misses
system.cpu.itb.accesses                             0                       # DTB accesses
system.cpu.workload.numSyscalls                    81                       # Number of system calls
system.cpu.pwrStateResidencyTicks::ON     60862145500                       # Cumulative time (in ticks) in various power states
system.cpu.numCycles                        121724292                       # number of cpu cycles simulated
system.cpu.numWorkItemsStarted                      0                       # number of work items this cpu started
system.cpu.numWorkItemsCompleted                    0                       # number of work items this cpu completed
system.cpu.fetch.icacheStallCycles            1120902                       # Number of cycles fetch is stalled on an Icache miss
system.cpu.fetch.Insts                      221779933                       # Number of instructions fetch has processed
system.cpu.fetch.Branches                    32616224                       # Number of branches that fetch encountered
system.cpu.fetch.predictedBranches           31541632                       # Number of branches that fetch has predicted taken
system.cpu.fetch.Cycles                     119255174                       # Number of cycles fetch has run and was not squashing or blocked
system.cpu.fetch.SquashCycles                 2427434                       # Number of cycles fetch has spent squashing
system.cpu.fetch.MiscStallCycles                 2243                       # Number of cycles fetch has spent waiting on interrupts, or bad addresses, or out of MSHRs
system.cpu.fetch.IcacheWaitRetryStallCycles         1442                       # Number of stall cycles due to full MSHR
system.cpu.fetch.CacheLines                  77507882                       # Number of cache lines fetched
system.cpu.fetch.IcacheSquashes                   885                       # Number of outstanding Icache misses that were squashed
system.cpu.fetch.rateDist::samples          121593478                       # Number of instructions fetched each cycle (Total)
system.cpu.fetch.rateDist::mean              2.076881                       # Number of instructions fetched each cycle (Total)
system.cpu.fetch.rateDist::stdev             0.974565                       # Number of instructions fetched each cycle (Total)
system.cpu.fetch.rateDist::underflows               0      0.00%      0.00% # Number of instructions fetched each cycle (Total)
system.cpu.fetch.rateDist::0                  3692695      3.04%      3.04% # Number of instructions fetched each cycle (Total)
system.cpu.fetch.rateDist::1                 42350501     34.83%     37.87% # Number of instructions fetched each cycle (Total)
system.cpu.fetch.rateDist::2                 16466135     13.54%     51.41% # Number of instructions fetched each cycle (Total)
system.cpu.fetch.rateDist::3                 59084147     48.59%    100.00% # Number of instructions fetched each cycle (Total)
system.cpu.fetch.rateDist::overflows                0      0.00%    100.00% # Number of instructions fetched each cycle (Total)
system.cpu.fetch.rateDist::min_value                0                       # Number of instructions fetched each cycle (Total)
system.cpu.fetch.rateDist::max_value                3                       # Number of instructions fetched each cycle (Total)
system.cpu.fetch.rateDist::total            121593478                       # Number of instructions fetched each cycle (Total)
system.cpu.fetch.branchRate                  0.267952                       # Number of branch fetches per cycle
system.cpu.fetch.rate                        1.821986                       # Number of inst fetches per cycle
system.cpu.decode.IdleCycles                  4113566                       # Number of cycles decode is idle
system.cpu.decode.BlockedCycles               5888832                       # Number of cycles decode is blocked
system.cpu.decode.RunCycles                 108065917                       # Number of cycles decode is running
system.cpu.decode.UnblockCycles               2386017                       # Number of cycles decode is unblocking
system.cpu.decode.SquashCycles                1139146                       # Number of cycles decode is squashing
system.cpu.decode.BranchResolved             18789679                       # Number of times decode resolved a branch
system.cpu.decode.BranchMispred                110222                       # Number of times decode detected a branch misprediction
system.cpu.decode.DecodedInsts              243388769                       # Number of instructions handled by decode
system.cpu.decode.SquashedInsts               4861088                       # Number of squashed instructions handled by decode
system.cpu.rename.SquashCycles                1139146                       # Number of cycles rename is squashing
system.cpu.rename.IdleCycles                  8343410                       # Number of cycles rename is idle
system.cpu.rename.BlockCycles                 2521376                       # Number of cycles rename is blocking
system.cpu.rename.serializeStallCycles        1281679                       # count of cycles rename stalled for serializing inst
system.cpu.rename.RunCycles                 106126738                       # Number of cycles rename is running
system.cpu.rename.UnblockCycles               2181129                       # Number of cycles rename is unblocking
system.cpu.rename.RenamedInsts              239086085                       # Number of instructions processed by rename
system.cpu.rename.SquashedInsts               1686294                       # Number of squashed instructions processed by rename
system.cpu.rename.ROBFullEvents                936057                       # Number of times rename has blocked due to ROB full
system.cpu.rename.IQFullEvents                      9                       # Number of times rename has blocked due to IQ full
system.cpu.rename.LQFullEvents                  49204                       # Number of times rename has blocked due to LQ full
system.cpu.rename.SQFullEvents                  31194                       # Number of times rename has blocked due to SQ full
system.cpu.rename.FullRegisterEvents               17                       # Number of times there has been no free registers
system.cpu.rename.RenamedOperands           193358797                       # Number of destination operands rename has renamed
system.cpu.rename.RenameLookups             288101919                       # Number of register rename lookups that rename has made
system.cpu.rename.int_rename_lookups        269709680                       # Number of integer rename lookups
system.cpu.rename.vec_rename_lookups            33988                       # Number of vector rename lookups
system.cpu.rename.CommittedMaps             176286572                       # Number of HB maps that are committed
system.cpu.rename.UndoneMaps                 17072225                       # Number of HB maps that are undone due to squashing
system.cpu.rename.serializingInsts              70513                       # count of serializing insts renamed
system.cpu.rename.tempSerializingInsts          56161                       # count of temporary serializing insts renamed
system.cpu.rename.skidInsts                   4066024                       # count of insts added to the skid buffer
system.cpu.memDep0.insertedLoads             53639924                       # Number of loads inserted to the mem dependence unit.
system.cpu.memDep0.insertedStores            49236469                       # Number of stores inserted to the mem dependence unit.
system.cpu.memDep0.conflictingLoads          19614704                       # Number of conflicting loads.
system.cpu.memDep0.conflictingStores          4213374                       # Number of conflicting stores.
system.cpu.iq.iqInstsAdded                  233721386                       # Number of instructions added to the IQ (excludes non-spec)
system.cpu.iq.iqNonSpecInstsAdded               55088                       # Number of non-speculative instructions added to the IQ
system.cpu.iq.iqInstsIssued                 228208381                       # Number of instructions issued
system.cpu.iq.iqSquashedInstsIssued            982323                       # Number of squashed instructions issued
system.cpu.iq.iqSquashedInstsExamined        19447247                       # Number of squashed instructions iterated over during squash; mainly for profiling
system.cpu.iq.iqSquashedOperandsExamined     11074795                       # Number of squashed operands that are examined and possibly removed from graph
system.cpu.iq.iqSquashedNonSpecRemoved           4253                       # Number of squashed non-spec instructions that were removed
system.cpu.iq.issued_per_cycle::samples     121593478                       # Number of insts issued each cycle
system.cpu.iq.issued_per_cycle::mean         1.876814                       # Number of insts issued each cycle
system.cpu.iq.issued_per_cycle::stdev        1.052852                       # Number of insts issued each cycle
system.cpu.iq.issued_per_cycle::underflows            0      0.00%      0.00% # Number of insts issued each cycle
system.cpu.iq.issued_per_cycle::0            15078235     12.40%     12.40% # Number of insts issued each cycle
system.cpu.iq.issued_per_cycle::1            25503564     20.97%     33.37% # Number of insts issued each cycle
system.cpu.iq.issued_per_cycle::2            45390623     37.33%     70.70% # Number of insts issued each cycle
system.cpu.iq.issued_per_cycle::3            30566824     25.14%     95.84% # Number of insts issued each cycle
system.cpu.iq.issued_per_cycle::4             5048061      4.15%     99.99% # Number of insts issued each cycle
system.cpu.iq.issued_per_cycle::5                6171      0.01%    100.00% # Number of insts issued each cycle
system.cpu.iq.issued_per_cycle::6                   0      0.00%    100.00% # Number of insts issued each cycle
system.cpu.iq.issued_per_cycle::7                   0      0.00%    100.00% # Number of insts issued each cycle
system.cpu.iq.issued_per_cycle::8                   0      0.00%    100.00% # Number of insts issued each cycle
system.cpu.iq.issued_per_cycle::overflows            0      0.00%    100.00% # Number of insts issued each cycle
system.cpu.iq.issued_per_cycle::min_value            0                       # Number of insts issued each cycle
system.cpu.iq.issued_per_cycle::max_value            5                       # Number of insts issued each cycle
system.cpu.iq.issued_per_cycle::total       121593478                       # Number of insts issued each cycle
system.cpu.iq.fu_full::No_OpClass                   0      0.00%      0.00% # attempts to use FU when none available
system.cpu.iq.fu_full::IntAlu                16845150     32.22%     32.22% # attempts to use FU when none available
system.cpu.iq.fu_full::IntMult                     51      0.00%     32.22% # attempts to use FU when none available
system.cpu.iq.fu_full::IntDiv                       0      0.00%     32.22% # attempts to use FU when none available
system.cpu.iq.fu_full::FloatAdd                     0      0.00%     32.22% # attempts to use FU when none available
system.cpu.iq.fu_full::FloatCmp                     0      0.00%     32.22% # attempts to use FU when none available
system.cpu.iq.fu_full::FloatCvt                     0      0.00%     32.22% # attempts to use FU when none available
system.cpu.iq.fu_full::FloatMult                    0      0.00%     32.22% # attempts to use FU when none available
system.cpu.iq.fu_full::FloatMultAcc                 0      0.00%     32.22% # attempts to use FU when none available
system.cpu.iq.fu_full::FloatDiv                     0      0.00%     32.22% # attempts to use FU when none available
system.cpu.iq.fu_full::FloatMisc                    0      0.00%     32.22% # attempts to use FU when none available
system.cpu.iq.fu_full::FloatSqrt                    0      0.00%     32.22% # attempts to use FU when none available
system.cpu.iq.fu_full::SimdAdd                      0      0.00%     32.22% # attempts to use FU when none available
system.cpu.iq.fu_full::SimdAddAcc                   0      0.00%     32.22% # attempts to use FU when none available
system.cpu.iq.fu_full::SimdAlu                      1      0.00%     32.22% # attempts to use FU when none available
system.cpu.iq.fu_full::SimdCmp                      4      0.00%     32.22% # attempts to use FU when none available
system.cpu.iq.fu_full::SimdCvt                      0      0.00%     32.22% # attempts to use FU when none available
system.cpu.iq.fu_full::SimdMisc                     0      0.00%     32.22% # attempts to use FU when none available
system.cpu.iq.fu_full::SimdMult                     0      0.00%     32.22% # attempts to use FU when none available
system.cpu.iq.fu_full::SimdMultAcc                  0      0.00%     32.22% # attempts to use FU when none available
system.cpu.iq.fu_full::SimdShift                    0      0.00%     32.22% # attempts to use FU when none available
system.cpu.iq.fu_full::SimdShiftAcc                 0      0.00%     32.22% # attempts to use FU when none available
system.cpu.iq.fu_full::SimdSqrt                     0      0.00%     32.22% # attempts to use FU when none available
system.cpu.iq.fu_full::SimdFloatAdd                 0      0.00%     32.22% # attempts to use FU when none available
system.cpu.iq.fu_full::SimdFloatAlu                 0      0.00%     32.22% # attempts to use FU when none available
system.cpu.iq.fu_full::SimdFloatCmp                 0      0.00%     32.22% # attempts to use FU when none available
system.cpu.iq.fu_full::SimdFloatCvt                 0      0.00%     32.22% # attempts to use FU when none available
system.cpu.iq.fu_full::SimdFloatDiv                 0      0.00%     32.22% # attempts to use FU when none available
system.cpu.iq.fu_full::SimdFloatMisc                0      0.00%     32.22% # attempts to use FU when none available
system.cpu.iq.fu_full::SimdFloatMult                0      0.00%     32.22% # attempts to use FU when none available
system.cpu.iq.fu_full::SimdFloatMultAcc             0      0.00%     32.22% # attempts to use FU when none available
system.cpu.iq.fu_full::SimdFloatSqrt                0      0.00%     32.22% # attempts to use FU when none available
system.cpu.iq.fu_full::MemRead               16106031     30.81%     63.03% # attempts to use FU when none available
system.cpu.iq.fu_full::MemWrite              19330683     36.97%    100.00% # attempts to use FU when none available
system.cpu.iq.fu_full::FloatMemRead                 0      0.00%    100.00% # attempts to use FU when none available
system.cpu.iq.fu_full::FloatMemWrite                0      0.00%    100.00% # attempts to use FU when none available
system.cpu.iq.fu_full::IprAccess                    0      0.00%    100.00% # attempts to use FU when none available
system.cpu.iq.fu_full::InstPrefetch                 0      0.00%    100.00% # attempts to use FU when none available
system.cpu.iq.FU_type_0::No_OpClass                 6      0.00%      0.00% # Type of FU issued
system.cpu.iq.FU_type_0::IntAlu             128914021     56.49%     56.49% # Type of FU issued
system.cpu.iq.FU_type_0::IntMult                20147      0.01%     56.50% # Type of FU issued
system.cpu.iq.FU_type_0::IntDiv                    13      0.00%     56.50% # Type of FU issued
system.cpu.iq.FU_type_0::FloatAdd                   0      0.00%     56.50% # Type of FU issued
system.cpu.iq.FU_type_0::FloatCmp                8139      0.00%     56.50% # Type of FU issued
system.cpu.iq.FU_type_0::FloatCvt               16276      0.01%     56.51% # Type of FU issued
system.cpu.iq.FU_type_0::FloatMult                  0      0.00%     56.51% # Type of FU issued
system.cpu.iq.FU_type_0::FloatMultAcc               0      0.00%     56.51% # Type of FU issued
system.cpu.iq.FU_type_0::FloatDiv                   0      0.00%     56.51% # Type of FU issued
system.cpu.iq.FU_type_0::FloatMisc               8143      0.00%     56.51% # Type of FU issued
system.cpu.iq.FU_type_0::FloatSqrt               8137      0.00%     56.52% # Type of FU issued
system.cpu.iq.FU_type_0::SimdAdd                   15      0.00%     56.52% # Type of FU issued
system.cpu.iq.FU_type_0::SimdAddAcc                 0      0.00%     56.52% # Type of FU issued
system.cpu.iq.FU_type_0::SimdAlu                   16      0.00%     56.52% # Type of FU issued
system.cpu.iq.FU_type_0::SimdCmp                   24      0.00%     56.52% # Type of FU issued
system.cpu.iq.FU_type_0::SimdCvt                    0      0.00%     56.52% # Type of FU issued
system.cpu.iq.FU_type_0::SimdMisc                  13      0.00%     56.52% # Type of FU issued
system.cpu.iq.FU_type_0::SimdMult                   0      0.00%     56.52% # Type of FU issued
system.cpu.iq.FU_type_0::SimdMultAcc                0      0.00%     56.52% # Type of FU issued
system.cpu.iq.FU_type_0::SimdShift                  0      0.00%     56.52% # Type of FU issued
system.cpu.iq.FU_type_0::SimdShiftAcc               0      0.00%     56.52% # Type of FU issued
system.cpu.iq.FU_type_0::SimdSqrt                   0      0.00%     56.52% # Type of FU issued
system.cpu.iq.FU_type_0::SimdFloatAdd               0      0.00%     56.52% # Type of FU issued
system.cpu.iq.FU_type_0::SimdFloatAlu               0      0.00%     56.52% # Type of FU issued
system.cpu.iq.FU_type_0::SimdFloatCmp               0      0.00%     56.52% # Type of FU issued
system.cpu.iq.FU_type_0::SimdFloatCvt               0      0.00%     56.52% # Type of FU issued
system.cpu.iq.FU_type_0::SimdFloatDiv               0      0.00%     56.52% # Type of FU issued
system.cpu.iq.FU_type_0::SimdFloatMisc              0      0.00%     56.52% # Type of FU issued
system.cpu.iq.FU_type_0::SimdFloatMult              0      0.00%     56.52% # Type of FU issued
system.cpu.iq.FU_type_0::SimdFloatMultAcc            0      0.00%     56.52% # Type of FU issued
system.cpu.iq.FU_type_0::SimdFloatSqrt              0      0.00%     56.52% # Type of FU issued
system.cpu.iq.FU_type_0::MemRead             52373573     22.95%     79.47% # Type of FU issued
system.cpu.iq.FU_type_0::MemWrite            46859858     20.53%    100.00% # Type of FU issued
system.cpu.iq.FU_type_0::FloatMemRead               0      0.00%    100.00% # Type of FU issued
system.cpu.iq.FU_type_0::FloatMemWrite              0      0.00%    100.00% # Type of FU issued
system.cpu.iq.FU_type_0::IprAccess                  0      0.00%    100.00% # Type of FU issued
system.cpu.iq.FU_type_0::InstPrefetch               0      0.00%    100.00% # Type of FU issued
system.cpu.iq.FU_type_0::total              228208381                       # Type of FU issued
system.cpu.iq.rate                           1.874797                       # Inst issue rate
system.cpu.iq.fu_busy_cnt                    52281920                       # FU busy when requested
system.cpu.iq.fu_busy_rate                   0.229097                       # FU busy rate (busy events/executed inst)
system.cpu.iq.int_inst_queue_reads          631192822                       # Number of integer instruction queue reads
system.cpu.iq.int_inst_queue_writes         253201128                       # Number of integer instruction queue writes
system.cpu.iq.int_inst_queue_wakeup_accesses    224479853                       # Number of integer instruction queue wakeup accesses
system.cpu.iq.fp_inst_queue_reads                   0                       # Number of floating instruction queue reads
system.cpu.iq.fp_inst_queue_writes                  0                       # Number of floating instruction queue writes
system.cpu.iq.fp_inst_queue_wakeup_accesses            0                       # Number of floating instruction queue wakeup accesses
system.cpu.iq.int_alu_accesses              280449454                       # Number of integer alu accesses
system.cpu.iq.fp_alu_accesses                       0                       # Number of floating point alu accesses
system.cpu.iew.lsq.thread0.forwLoads         23411136                       # Number of loads that had data forwarded from stores
system.cpu.iew.lsq.thread0.invAddrLoads             0                       # Number of loads ignored due to an invalid address
system.cpu.iew.lsq.thread0.squashedLoads      3725782                       # Number of loads squashed
system.cpu.iew.lsq.thread0.ignoredResponses         2487                       # Number of memory responses ignored because the instruction is squashed
system.cpu.iew.lsq.thread0.memOrderViolation        21198                       # Number of memory ordering violations
system.cpu.iew.lsq.thread0.squashedStores      4747602                       # Number of stores squashed
system.cpu.iew.lsq.thread0.invAddrSwpfs             0                       # Number of software prefetches ignored due to an invalid address
system.cpu.iew.lsq.thread0.blockedLoads             0                       # Number of blocked loads due to partial load-store forwarding
system.cpu.iew.lsq.thread0.rescheduledLoads       137613                       # Number of loads that were rescheduled
system.cpu.iew.lsq.thread0.cacheBlocked           485                       # Number of times an access to memory failed due to the cache being blocked
system.cpu.iew.iewIdleCycles                        0                       # Number of cycles IEW is idle
system.cpu.iew.iewSquashCycles                1139146                       # Number of cycles IEW is squashing
system.cpu.iew.iewBlockCycles                 1665886                       # Number of cycles IEW is blocking
system.cpu.iew.iewUnblockCycles                    51                       # Number of cycles IEW is unblocking
system.cpu.iew.iewDispatchedInsts           237353277                       # Number of instructions dispatched to IQ
system.cpu.iew.iewDispSquashedInsts                 0                       # Number of squashed instructions skipped by dispatch
system.cpu.iew.iewDispLoadInsts              53639924                       # Number of dispatched load instructions
system.cpu.iew.iewDispStoreInsts             49236469                       # Number of dispatched store instructions
system.cpu.iew.iewDispNonSpecInsts              55080                       # Number of dispatched non-speculative instructions
system.cpu.iew.iewIQFullEvents                      5                       # Number of times the IQ has become full, causing a stall
system.cpu.iew.iewLSQFullEvents                    46                       # Number of times the LSQ has become full, causing a stall
system.cpu.iew.memOrderViolationEvents          21198                       # Number of memory order violations
system.cpu.iew.predictedTakenIncorrect        1048418                       # Number of branches that were predicted taken incorrectly
system.cpu.iew.predictedNotTakenIncorrect        79569                       # Number of branches that were predicted not taken incorrectly
system.cpu.iew.branchMispredicts              1127987                       # Number of branch mispredicts detected at execute
system.cpu.iew.iewExecutedInsts             224867644                       # Number of executed instructions
system.cpu.iew.iewExecLoadInsts              51868274                       # Number of load instructions executed
system.cpu.iew.iewExecSquashedInsts           3340737                       # Number of squashed instructions skipped in execute
system.cpu.iew.exec_swp                             0                       # number of swp insts executed
system.cpu.iew.exec_nop                       3576803                       # number of nop insts executed
system.cpu.iew.exec_refs                     97709159                       # number of memory reference insts executed
system.cpu.iew.exec_branches                 30216388                       # Number of branches executed
system.cpu.iew.exec_stores                   45840885                       # Number of stores executed
system.cpu.iew.exec_rate                     1.847352                       # Inst execution rate
system.cpu.iew.wb_sent                      224644173                       # cumulative count of insts sent to commit
system.cpu.iew.wb_count                     224520663                       # cumulative count of insts written-back
system.cpu.iew.wb_producers                 128111165                       # num instructions producing a value
system.cpu.iew.wb_consumers                 191705819                       # num instructions consuming a value
system.cpu.iew.wb_rate                       1.844502                       # insts written-back per cycle
system.cpu.iew.wb_fanout                     0.668270                       # average fanout of values written-back
system.cpu.commit.commitSquashedInsts        17184947                       # The number of squashed insts skipped by commit
system.cpu.commit.commitNonSpecStalls           50835                       # The number of times commit has been forced to stall to communicate backwards
system.cpu.commit.branchMispredicts           1119680                       # The number of times a branch was mispredicted
system.cpu.commit.committed_per_cycle::samples    118788909                       # Number of insts commited each cycle
system.cpu.commit.committed_per_cycle::mean     1.832271                       # Number of insts commited each cycle
system.cpu.commit.committed_per_cycle::stdev     2.492241                       # Number of insts commited each cycle
system.cpu.commit.committed_per_cycle::underflows            0      0.00%      0.00% # Number of insts commited each cycle
system.cpu.commit.committed_per_cycle::0     53732247     45.23%     45.23% # Number of insts commited each cycle
system.cpu.commit.committed_per_cycle::1     23435290     19.73%     64.96% # Number of insts commited each cycle
system.cpu.commit.committed_per_cycle::2      6956362      5.86%     70.82% # Number of insts commited each cycle
system.cpu.commit.committed_per_cycle::3     11606898      9.77%     80.59% # Number of insts commited each cycle
system.cpu.commit.committed_per_cycle::4      5017985      4.22%     84.81% # Number of insts commited each cycle
system.cpu.commit.committed_per_cycle::5      4073678      3.43%     88.24% # Number of insts commited each cycle
system.cpu.commit.committed_per_cycle::6      2616038      2.20%     90.44% # Number of insts commited each cycle
system.cpu.commit.committed_per_cycle::7      1455101      1.22%     91.67% # Number of insts commited each cycle
system.cpu.commit.committed_per_cycle::8      9895310      8.33%    100.00% # Number of insts commited each cycle
system.cpu.commit.committed_per_cycle::overflows            0      0.00%    100.00% # Number of insts commited each cycle
system.cpu.commit.committed_per_cycle::min_value            0                       # Number of insts commited each cycle
system.cpu.commit.committed_per_cycle::max_value            8                       # Number of insts commited each cycle
system.cpu.commit.committed_per_cycle::total    118788909                       # Number of insts commited each cycle
system.cpu.commit.committedInsts            191335277                       # Number of instructions committed
system.cpu.commit.committedOps              217653453                       # Number of ops (including micro ops) committed
system.cpu.commit.swp_count                         0                       # Number of s/w prefetches committed
system.cpu.commit.refs                       94403009                       # Number of memory references committed
system.cpu.commit.loads                      49914142                       # Number of loads committed
system.cpu.commit.membars                       50753                       # Number of memory barriers committed
system.cpu.commit.branches                   28378881                       # Number of branches committed
system.cpu.commit.vec_insts                     40798                       # Number of committed Vector instructions.
system.cpu.commit.fp_insts                          0                       # Number of committed floating point instructions.
system.cpu.commit.int_insts                 208799817                       # Number of committed integer instructions.
system.cpu.commit.function_calls             11292697                       # Number of function calls committed.
system.cpu.commit.op_class_0::No_OpClass            4      0.00%      0.00% # Class of committed instruction
system.cpu.commit.op_class_0::IntAlu        123189542     56.60%     56.60% # Class of committed instruction
system.cpu.commit.op_class_0::IntMult           20135      0.01%     56.61% # Class of committed instruction
system.cpu.commit.op_class_0::IntDiv                9      0.00%     56.61% # Class of committed instruction
system.cpu.commit.op_class_0::FloatAdd              0      0.00%     56.61% # Class of committed instruction
system.cpu.commit.op_class_0::FloatCmp           8139      0.00%     56.61% # Class of committed instruction
system.cpu.commit.op_class_0::FloatCvt          16275      0.01%     56.62% # Class of committed instruction
system.cpu.commit.op_class_0::FloatMult             0      0.00%     56.62% # Class of committed instruction
system.cpu.commit.op_class_0::FloatMultAcc            0      0.00%     56.62% # Class of committed instruction
system.cpu.commit.op_class_0::FloatDiv              0      0.00%     56.62% # Class of committed instruction
system.cpu.commit.op_class_0::FloatMisc          8143      0.00%     56.62% # Class of committed instruction
system.cpu.commit.op_class_0::FloatSqrt          8137      0.00%     56.63% # Class of committed instruction
system.cpu.commit.op_class_0::SimdAdd              15      0.00%     56.63% # Class of committed instruction
system.cpu.commit.op_class_0::SimdAddAcc            0      0.00%     56.63% # Class of committed instruction
system.cpu.commit.op_class_0::SimdAlu              16      0.00%     56.63% # Class of committed instruction
system.cpu.commit.op_class_0::SimdCmp              16      0.00%     56.63% # Class of committed instruction
system.cpu.commit.op_class_0::SimdCvt               0      0.00%     56.63% # Class of committed instruction
system.cpu.commit.op_class_0::SimdMisc             13      0.00%     56.63% # Class of committed instruction
system.cpu.commit.op_class_0::SimdMult              0      0.00%     56.63% # Class of committed instruction
system.cpu.commit.op_class_0::SimdMultAcc            0      0.00%     56.63% # Class of committed instruction
system.cpu.commit.op_class_0::SimdShift             0      0.00%     56.63% # Class of committed instruction
system.cpu.commit.op_class_0::SimdShiftAcc            0      0.00%     56.63% # Class of committed instruction
system.cpu.commit.op_class_0::SimdSqrt              0      0.00%     56.63% # Class of committed instruction
system.cpu.commit.op_class_0::SimdFloatAdd            0      0.00%     56.63% # Class of committed instruction
system.cpu.commit.op_class_0::SimdFloatAlu            0      0.00%     56.63% # Class of committed instruction
system.cpu.commit.op_class_0::SimdFloatCmp            0      0.00%     56.63% # Class of committed instruction
system.cpu.commit.op_class_0::SimdFloatCvt            0      0.00%     56.63% # Class of committed instruction
system.cpu.commit.op_class_0::SimdFloatDiv            0      0.00%     56.63% # Class of committed instruction
system.cpu.commit.op_class_0::SimdFloatMisc            0      0.00%     56.63% # Class of committed instruction
[...]
system.l2.ReadCleanReq_avg_miss_latency::total 83160.288809                       # average ReadCleanReq miss latency
system.l2.ReadSharedReq_avg_miss_latency::cpu.data 88085.020243                       # average ReadSharedReq miss latency
system.l2.ReadSharedReq_avg_miss_latency::total 88085.020243                       # average ReadSharedReq miss latency
system.l2.demand_avg_miss_latency::cpu.inst 83160.288809                       # average overall miss latency
system.l2.demand_avg_miss_latency::cpu.data 129702.730030                       # average overall miss latency
system.l2.demand_avg_miss_latency::total 102549.705139                       # average overall miss latency
system.l2.overall_avg_miss_latency::cpu.inst 83160.288809                       # average overall miss latency
system.l2.overall_avg_miss_latency::cpu.data 129702.730030                       # average overall miss latency
system.l2.overall_avg_miss_latency::total 102549.705139                       # average overall miss latency
system.l2.blocked_cycles::no_mshrs                338                       # number of cycles access was blocked
system.l2.blocked_cycles::no_targets                0                       # number of cycles access was blocked
system.l2.blocked::no_mshrs                        17                       # number of cycles access was blocked
system.l2.blocked::no_targets                       0                       # number of cycles access was blocked
system.l2.avg_blocked_cycles::no_mshrs      19.882353                       # average number of cycles each access was blocked
system.l2.avg_blocked_cycles::no_targets          nan                       # average number of cycles each access was blocked
system.l2.ReadExReq_mshr_hits::cpu.data            63                       # number of ReadExReq MSHR hits
system.l2.ReadExReq_mshr_hits::total               63                       # number of ReadExReq MSHR hits
system.l2.ReadSharedReq_mshr_hits::cpu.data            6                       # number of ReadSharedReq MSHR hits
system.l2.ReadSharedReq_mshr_hits::total            6                       # number of ReadSharedReq MSHR hits
system.l2.demand_mshr_hits::cpu.data               69                       # number of demand (read+write) MSHR hits
system.l2.demand_mshr_hits::total                  69                       # number of demand (read+write) MSHR hits
system.l2.overall_mshr_hits::cpu.data              69                       # number of overall MSHR hits
system.l2.overall_mshr_hits::total                 69                       # number of overall MSHR hits
system.l2.HardPFReq_mshr_misses::l2.prefetcher         2198                       # number of HardPFReq MSHR misses
system.l2.HardPFReq_mshr_misses::total           2198                       # number of HardPFReq MSHR misses
system.l2.ReadExReq_mshr_misses::cpu.data          679                       # number of ReadExReq MSHR misses
system.l2.ReadExReq_mshr_misses::total            679                       # number of ReadExReq MSHR misses
system.l2.ReadCleanReq_mshr_misses::cpu.inst         1385                       # number of ReadCleanReq MSHR misses
system.l2.ReadCleanReq_mshr_misses::total         1385                       # number of ReadCleanReq MSHR misses
system.l2.ReadSharedReq_mshr_misses::cpu.data          241                       # number of ReadSharedReq MSHR misses
system.l2.ReadSharedReq_mshr_misses::total          241                       # number of ReadSharedReq MSHR misses
system.l2.InvalidateReq_mshr_misses::cpu.data            4                       # number of InvalidateReq MSHR misses
system.l2.InvalidateReq_mshr_misses::total            4                       # number of InvalidateReq MSHR misses
system.l2.demand_mshr_misses::cpu.inst           1385                       # number of demand (read+write) MSHR misses
system.l2.demand_mshr_misses::cpu.data            920                       # number of demand (read+write) MSHR misses
system.l2.demand_mshr_misses::total              2305                       # number of demand (read+write) MSHR misses
system.l2.overall_mshr_misses::cpu.inst          1385                       # number of overall MSHR misses
system.l2.overall_mshr_misses::cpu.data           920                       # number of overall MSHR misses
system.l2.overall_mshr_misses::l2.prefetcher         2198                       # number of overall MSHR misses
system.l2.overall_mshr_misses::total             4503                       # number of overall MSHR misses
system.l2.HardPFReq_mshr_miss_latency::l2.prefetcher    405851985                       # number of HardPFReq MSHR miss cycles
system.l2.HardPFReq_mshr_miss_latency::total    405851985                       # number of HardPFReq MSHR miss cycles
system.l2.ReadExReq_mshr_miss_latency::cpu.data     99866000                       # number of ReadExReq MSHR miss cycles
system.l2.ReadExReq_mshr_miss_latency::total     99866000                       # number of ReadExReq MSHR miss cycles
system.l2.ReadCleanReq_mshr_miss_latency::cpu.inst    106873000                       # number of ReadCleanReq MSHR miss cycles
system.l2.ReadCleanReq_mshr_miss_latency::total    106873000                       # number of ReadCleanReq MSHR miss cycles
system.l2.ReadSharedReq_mshr_miss_latency::cpu.data     19924500                       # number of ReadSharedReq MSHR miss cycles
system.l2.ReadSharedReq_mshr_miss_latency::total     19924500                       # number of ReadSharedReq MSHR miss cycles
system.l2.InvalidateReq_mshr_miss_latency::cpu.data        60000                       # number of InvalidateReq MSHR miss cycles
system.l2.InvalidateReq_mshr_miss_latency::total        60000                       # number of InvalidateReq MSHR miss cycles
system.l2.demand_mshr_miss_latency::cpu.inst    106873000                       # number of demand (read+write) MSHR miss cycles
system.l2.demand_mshr_miss_latency::cpu.data    119790500                       # number of demand (read+write) MSHR miss cycles
system.l2.demand_mshr_miss_latency::total    226663500                       # number of demand (read+write) MSHR miss cycles
system.l2.overall_mshr_miss_latency::cpu.inst    106873000                       # number of overall MSHR miss cycles
system.l2.overall_mshr_miss_latency::cpu.data    119790500                       # number of overall MSHR miss cycles
system.l2.overall_mshr_miss_latency::l2.prefetcher    405851985                       # number of overall MSHR miss cycles
system.l2.overall_mshr_miss_latency::total    632515485                       # number of overall MSHR miss cycles
system.l2.HardPFReq_mshr_miss_rate::l2.prefetcher          inf                       # mshr miss rate for HardPFReq accesses
system.l2.HardPFReq_mshr_miss_rate::total          inf                       # mshr miss rate for HardPFReq accesses
system.l2.ReadExReq_mshr_miss_rate::cpu.data     0.236256                       # mshr miss rate for ReadExReq accesses
system.l2.ReadExReq_mshr_miss_rate::total     0.236256                       # mshr miss rate for ReadExReq accesses
system.l2.ReadCleanReq_mshr_miss_rate::cpu.inst     0.774609                       # mshr miss rate for ReadCleanReq accesses
system.l2.ReadCleanReq_mshr_miss_rate::total     0.774609                       # mshr miss rate for ReadCleanReq accesses
system.l2.ReadSharedReq_mshr_miss_rate::cpu.data     0.209383                       # mshr miss rate for ReadSharedReq accesses
system.l2.ReadSharedReq_mshr_miss_rate::total     0.209383                       # mshr miss rate for ReadSharedReq accesses
system.l2.InvalidateReq_mshr_miss_rate::cpu.data            1                       # mshr miss rate for InvalidateReq accesses
system.l2.InvalidateReq_mshr_miss_rate::total            1                       # mshr miss rate for InvalidateReq accesses
system.l2.demand_mshr_miss_rate::cpu.inst     0.774609                       # mshr miss rate for demand accesses
system.l2.demand_mshr_miss_rate::cpu.data     0.228571                       # mshr miss rate for demand accesses
system.l2.demand_mshr_miss_rate::total       0.396525                       # mshr miss rate for demand accesses
system.l2.overall_mshr_miss_rate::cpu.inst     0.774609                       # mshr miss rate for overall accesses
system.l2.overall_mshr_miss_rate::cpu.data     0.228571                       # mshr miss rate for overall accesses
system.l2.overall_mshr_miss_rate::l2.prefetcher          inf                       # mshr miss rate for overall accesses
system.l2.overall_mshr_miss_rate::total      0.774643                       # mshr miss rate for overall accesses
system.l2.HardPFReq_avg_mshr_miss_latency::l2.prefetcher 184646.035032                       # average HardPFReq mshr miss latency
system.l2.HardPFReq_avg_mshr_miss_latency::total 184646.035032                       # average HardPFReq mshr miss latency
system.l2.ReadExReq_avg_mshr_miss_latency::cpu.data 147078.055965                       # average ReadExReq mshr miss latency
system.l2.ReadExReq_avg_mshr_miss_latency::total 147078.055965                       # average ReadExReq mshr miss latency
system.l2.ReadCleanReq_avg_mshr_miss_latency::cpu.inst 77164.620939                       # average ReadCleanReq mshr miss latency
system.l2.ReadCleanReq_avg_mshr_miss_latency::total 77164.620939                       # average ReadCleanReq mshr miss latency
system.l2.ReadSharedReq_avg_mshr_miss_latency::cpu.data 82674.273859                       # average ReadSharedReq mshr miss latency
system.l2.ReadSharedReq_avg_mshr_miss_latency::total 82674.273859                       # average ReadSharedReq mshr miss latency
system.l2.InvalidateReq_avg_mshr_miss_latency::cpu.data        15000                       # average InvalidateReq mshr miss latency
system.l2.InvalidateReq_avg_mshr_miss_latency::total        15000                       # average InvalidateReq mshr miss latency
system.l2.demand_avg_mshr_miss_latency::cpu.inst 77164.620939                       # average overall mshr miss latency
system.l2.demand_avg_mshr_miss_latency::cpu.data 130207.065217                       # average overall mshr miss latency
system.l2.demand_avg_mshr_miss_latency::total 98335.574837                       # average overall mshr miss latency
system.l2.overall_avg_mshr_miss_latency::cpu.inst 77164.620939                       # average overall mshr miss latency
system.l2.overall_avg_mshr_miss_latency::cpu.data 130207.065217                       # average overall mshr miss latency
system.l2.overall_avg_mshr_miss_latency::l2.prefetcher 184646.035032                       # average overall mshr miss latency
system.l2.overall_avg_mshr_miss_latency::total 140465.353098                       # average overall mshr miss latency
system.membus.snoop_filter.tot_requests          4271                       # Total number of requests made to the snoop filter.
system.membus.snoop_filter.hit_single_requests           21                       # Number of requests hitting in the snoop filter with a single holder of the requested data.
system.membus.snoop_filter.hit_multi_requests            0                       # Number of requests hitting in the snoop filter with multiple (>1) holders of the requested data.
system.membus.snoop_filter.tot_snoops               0                       # Total number of snoops made to the snoop filter.
system.membus.snoop_filter.hit_single_snoops            0                       # Number of snoops hitting in the snoop filter with a single holder of the requested data.
system.membus.snoop_filter.hit_multi_snoops            0                       # Number of snoops hitting in the snoop filter with multiple (>1) holders of the requested data.
system.membus.pwrStateResidencyTicks::UNDEFINED  60862145500                       # Cumulative time (in ticks) in various power states
system.membus.trans_dist::ReadResp               3588                       # Transaction distribution
system.membus.trans_dist::ReadExReq               679                       # Transaction distribution
system.membus.trans_dist::ReadExResp              679                       # Transaction distribution
system.membus.trans_dist::ReadSharedReq          3588                       # Transaction distribution
system.membus.trans_dist::InvalidateReq             4                       # Transaction distribution
system.membus.pkt_count_system.l2.mem_side::system.mem_ctrls.port         8538                       # Packet count per connected master and slave (bytes)
system.membus.pkt_count::total                   8538                       # Packet count per connected master and slave (bytes)
system.membus.pkt_size_system.l2.mem_side::system.mem_ctrls.port       273088                       # Cumulative packet size per connected master and slave (bytes)
system.membus.pkt_size::total                  273088                       # Cumulative packet size per connected master and slave (bytes)
system.membus.snoops                                0                       # Total snoops (count)
system.membus.snoopTraffic                          0                       # Total snoop traffic (bytes)
system.membus.snoop_fanout::samples              4271                       # Request fanout histogram
system.membus.snoop_fanout::mean                    0                       # Request fanout histogram
system.membus.snoop_fanout::stdev                   0                       # Request fanout histogram
system.membus.snoop_fanout::underflows              0      0.00%      0.00% # Request fanout histogram
system.membus.snoop_fanout::0                    4271    100.00%    100.00% # Request fanout histogram
system.membus.snoop_fanout::1                       0      0.00%    100.00% # Request fanout histogram
system.membus.snoop_fanout::overflows               0      0.00%    100.00% # Request fanout histogram
system.membus.snoop_fanout::min_value               0                       # Request fanout histogram
system.membus.snoop_fanout::max_value               0                       # Request fanout histogram
system.membus.snoop_fanout::total                4271                       # Request fanout histogram
system.membus.reqLayer0.occupancy             5960014                       # Layer occupancy (ticks)
system.membus.reqLayer0.utilization               0.0                       # Layer utilization (%)
system.membus.respLayer1.occupancy           22543578                       # Layer occupancy (ticks)
system.membus.respLayer1.utilization              0.0                       # Layer utilization (%)
system.tol2bus.snoop_filter.tot_requests        10099                       # Total number of requests made to the snoop filter.
system.tol2bus.snoop_filter.hit_single_requests         4290                       # Number of requests hitting in the snoop filter with a single holder of the requested data.
system.tol2bus.snoop_filter.hit_multi_requests           16                       # Number of requests hitting in the snoop filter with multiple (>1) holders of the requested data.
system.tol2bus.snoop_filter.tot_snoops            235                       # Total number of snoops made to the snoop filter.
system.tol2bus.snoop_filter.hit_single_snoops          235                       # Number of snoops hitting in the snoop filter with a single holder of the requested data.
system.tol2bus.snoop_filter.hit_multi_snoops            0                       # Number of snoops hitting in the snoop filter with multiple (>1) holders of the requested data.
system.tol2bus.pwrStateResidencyTicks::UNDEFINED  60862145500                       # Cumulative time (in ticks) in various power states
system.tol2bus.trans_dist::ReadResp              2938                       # Transaction distribution
system.tol2bus.trans_dist::WritebackDirty         2832                       # Transaction distribution
system.tol2bus.trans_dist::WritebackClean         1450                       # Transaction distribution
system.tol2bus.trans_dist::HardPFReq             2632                       # Transaction distribution
system.tol2bus.trans_dist::ReadExReq             2874                       # Transaction distribution
system.tol2bus.trans_dist::ReadExResp            2874                       # Transaction distribution
system.tol2bus.trans_dist::ReadCleanReq          1788                       # Transaction distribution
system.tol2bus.trans_dist::ReadSharedReq         1151                       # Transaction distribution
system.tol2bus.trans_dist::InvalidateReq            4                       # Transaction distribution
system.tol2bus.trans_dist::InvalidateResp            4                       # Transaction distribution
system.tol2bus.pkt_count_system.cpu.icache.mem_side::system.l2.cpu_side         4852                       # Packet count per connected master and slave (bytes)
system.tol2bus.pkt_count_system.cpu.dcache.mem_side::system.l2.cpu_side        11063                       # Packet count per connected master and slave (bytes)
system.tol2bus.pkt_count::total                 15915                       # Packet count per connected master and slave (bytes)
system.tol2bus.pkt_size_system.cpu.icache.mem_side::system.l2.cpu_side       196096                       # Cumulative packet size per connected master and slave (bytes)
system.tol2bus.pkt_size_system.cpu.dcache.mem_side::system.l2.cpu_side       449920                       # Cumulative packet size per connected master and slave (bytes)
system.tol2bus.pkt_size::total                 646016                       # Cumulative packet size per connected master and slave (bytes)
system.tol2bus.snoops                            2632                       # Total snoops (count)
system.tol2bus.snoopTraffic                         0                       # Total snoop traffic (bytes)
system.tol2bus.snoop_fanout::samples             8449                       # Request fanout histogram
system.tol2bus.snoop_fanout::mean            0.030655                       # Request fanout histogram
system.tol2bus.snoop_fanout::stdev           0.172390                       # Request fanout histogram
system.tol2bus.snoop_fanout::underflows             0      0.00%      0.00% # Request fanout histogram
system.tol2bus.snoop_fanout::0                   8190     96.93%     96.93% # Request fanout histogram
system.tol2bus.snoop_fanout::1                    259      3.07%    100.00% # Request fanout histogram
system.tol2bus.snoop_fanout::2                      0      0.00%    100.00% # Request fanout histogram
system.tol2bus.snoop_fanout::3                      0      0.00%    100.00% # Request fanout histogram
system.tol2bus.snoop_fanout::4                      0      0.00%    100.00% # Request fanout histogram
system.tol2bus.snoop_fanout::overflows              0      0.00%    100.00% # Request fanout histogram
system.tol2bus.snoop_fanout::min_value              0                       # Request fanout histogram
system.tol2bus.snoop_fanout::max_value              1                       # Request fanout histogram
system.tol2bus.snoop_fanout::total               8449                       # Request fanout histogram
system.tol2bus.reqLayer0.occupancy            9331500                       # Layer occupancy (ticks)
system.tol2bus.reqLayer0.utilization              0.0                       # Layer utilization (%)
system.tol2bus.respLayer0.occupancy           2680500                       # Layer occupancy (ticks)
system.tol2bus.respLayer0.utilization             0.0                       # Layer utilization (%)
system.tol2bus.respLayer1.occupancy           6040997                       # Layer occupancy (ticks)
system.tol2bus.respLayer1.utilization             0.0                       # Layer utilization (%)

---------- End Simulation Statistics   ----------
