gem5 Simulator System.  http://gem5.org
gem5 is copyrighted software; use the --copyright option for details.

gem5 compiled Dec  6 2017 01:08:45
gem5 started Dec  6 2017 02:00:24
gem5 executing on phicrow, pid 24142
command line: build/ARM/gem5.fast -d m5out/step4 ./configs/example/se.py --caches --l2cache --cpu-type=O3_ARM_v7a_3 -c ../benchmark/microbench/Step4 -o '5 2'

Global frequency set at 1000000000000 ticks per second
**** REAL SIMULATION ****
Exiting @ tick 206018788000 because exiting with last active thread context
