
---------- Begin Simulation Statistics ----------
sim_seconds                                  0.102828                       # Number of seconds simulated
sim_ticks                                102827503000                       # Number of ticks simulated
final_tick                               102827503000                       # Number of ticks from beginning of simulation (restored from checkpoints and never reset)
sim_freq                                 1000000000000                       # Frequency of simulated ticks
host_inst_rate                                 284313                       # Simulator instruction rate (inst/s)
host_op_rate                                   286985                       # Simulator op (including micro ops) rate (op/s)
host_tick_rate                              153932337                       # Simulator tick rate (ticks/s)
host_mem_usage                                 672164                       # Number of bytes of host memory used
host_seconds                                   668.00                       # Real time elapsed on the host
sim_insts                                   189922314                       # Number of instructions simulated
sim_ops                                     191707374                       # Number of ops (including micro ops) simulated
system.voltage_domain.voltage                       1                       # Voltage in Volts
system.clk_domain.clock                          1000                       # Clock period in ticks
system.mem_ctrls.pwrStateResidencyTicks::UNDEFINED 102827503000                       # Cumulative time (in ticks) in various power states
system.mem_ctrls.bytes_read::cpu.inst           25536                       # Number of bytes read from this memory
system.mem_ctrls.bytes_read::cpu.data           11520                       # Number of bytes read from this memory
system.mem_ctrls.bytes_read::l2.prefetcher        24704                       # Number of bytes read from this memory
system.mem_ctrls.bytes_read::total              61760                       # Number of bytes read from this memory
system.mem_ctrls.bytes_inst_read::cpu.inst        25536                       # Number of instructions bytes read from this memory
system.mem_ctrls.bytes_inst_read::total         25536                       # Number of instructions bytes read from this memory
system.mem_ctrls.num_reads::cpu.inst              399                       # Number of read requests responded to by this memory
system.mem_ctrls.num_reads::cpu.data              180                       # Number of read requests responded to by this memory
system.mem_ctrls.num_reads::l2.prefetcher          386                       # Number of read requests responded to by this memory
system.mem_ctrls.num_reads::total                 965                       # Number of read requests responded to by this memory
system.mem_ctrls.bw_read::cpu.inst             248338                       # Total read bandwidth from this memory (bytes/s)
system.mem_ctrls.bw_read::cpu.data             112032                       # Total read bandwidth from this memory (bytes/s)
system.mem_ctrls.bw_read::l2.prefetcher        240247                       # Total read bandwidth from this memory (bytes/s)
system.mem_ctrls.bw_read::total                600618                       # Total read bandwidth from this memory (bytes/s)
system.mem_ctrls.bw_inst_read::cpu.inst        248338                       # Instruction read bandwidth from this memory (bytes/s)
system.mem_ctrls.bw_inst_read::total           248338                       # Instruction read bandwidth from this memory (bytes/s)
system.mem_ctrls.bw_total::cpu.inst            248338                       # Total bandwidth to/from this memory (bytes/s)
system.mem_ctrls.bw_total::cpu.data            112032                       # Total bandwidth to/from this memory (bytes/s)
system.mem_ctrls.bw_total::l2.prefetcher       240247                       # Total bandwidth to/from this memory (bytes/s)
system.mem_ctrls.bw_total::total               600618                       # Total bandwidth to/from this memory (bytes/s)
system.mem_ctrls.readReqs                         966                       # Number of read requests accepted
system.mem_ctrls.writeReqs                          0                       # Number of write requests accepted
system.mem_ctrls.readBursts                       966                       # Number of DRAM read bursts, including those serviced by the write queue
system.mem_ctrls.writeBursts                        0                       # Number of DRAM write bursts, including those merged in the write queue
system.mem_ctrls.bytesReadDRAM                  61824                       # Total number of bytes read from DRAM
system.mem_ctrls.bytesReadWrQ                       0                       # Total number of bytes read from write queue
system.mem_ctrls.bytesWritten                       0                       # Total number of bytes written to DRAM
system.mem_ctrls.bytesReadSys                   61824                       # Total read bytes from the system interface side
system.mem_ctrls.bytesWrittenSys                    0                       # Total written bytes from the system interface side
system.mem_ctrls.servicedByWrQ                      0                       # Number of DRAM read bursts serviced by the write queue
system.mem_ctrls.mergedWrBursts                     0                       # Number of DRAM write bursts merged with an existing one
system.mem_ctrls.neitherReadNorWriteReqs            0                       # Number of requests that are neither read nor write
system.mem_ctrls.perBankRdBursts::0               100                       # Per bank write bursts
system.mem_ctrls.perBankRdBursts::1                 4                       # Per bank write bursts
system.mem_ctrls.perBankRdBursts::2                 9                       # Per bank write bursts
system.mem_ctrls.perBankRdBursts::3                73                       # Per bank write bursts
system.mem_ctrls.perBankRdBursts::4                21                       # Per bank write bursts
system.mem_ctrls.perBankRdBursts::5                25                       # Per bank write bursts
system.mem_ctrls.perBankRdBursts::6               142                       # Per bank write bursts
system.mem_ctrls.perBankRdBursts::7               166                       # Per bank write bursts
system.mem_ctrls.perBankRdBursts::8                98                       # Per bank write bursts
system.mem_ctrls.perBankRdBursts::9                22                       # Per bank write bursts
system.mem_ctrls.perBankRdBursts::10               19                       # Per bank write bursts
system.mem_ctrls.perBankRdBursts::11               12                       # Per bank write bursts
system.mem_ctrls.perBankRdBursts::12              109                       # Per bank write bursts
system.mem_ctrls.perBankRdBursts::13               23                       # Per bank write bursts
system.mem_ctrls.perBankRdBursts::14               54                       # Per bank write bursts
system.mem_ctrls.perBankRdBursts::15               89                       # Per bank write bursts
system.mem_ctrls.perBankWrBursts::0                 0                       # Per bank write bursts
system.mem_ctrls.perBankWrBursts::1                 0                       # Per bank write bursts
system.mem_ctrls.perBankWrBursts::2                 0                       # Per bank write bursts
system.mem_ctrls.perBankWrBursts::3                 0                       # Per bank write bursts
system.mem_ctrls.perBankWrBursts::4                 0                       # Per bank write bursts
system.mem_ctrls.perBankWrBursts::5                 0                       # Per bank write bursts
system.mem_ctrls.perBankWrBursts::6                 0                       # Per bank write bursts
system.mem_ctrls.perBankWrBursts::7                 0                       # Per bank write bursts
system.mem_ctrls.perBankWrBursts::8                 0                       # Per bank write bursts
system.mem_ctrls.perBankWrBursts::9                 0                       # Per bank write bursts
system.mem_ctrls.perBankWrBursts::10                0                       # Per bank write bursts
system.mem_ctrls.perBankWrBursts::11                0                       # Per bank write bursts
system.mem_ctrls.perBankWrBursts::12                0                       # Per bank write bursts
system.mem_ctrls.perBankWrBursts::13                0                       # Per bank write bursts
system.mem_ctrls.perBankWrBursts::14                0                       # Per bank write bursts
system.mem_ctrls.perBankWrBursts::15                0                       # Per bank write bursts
system.mem_ctrls.numRdRetry                         0                       # Number of times read queue was full causing retry
system.mem_ctrls.numWrRetry                         0                       # Number of times write queue was full causing retry
system.mem_ctrls.totGap                  102827494000                       # Total gap between requests
system.mem_ctrls.readPktSize::0                     0                       # Read request sizes (log2)
system.mem_ctrls.readPktSize::1                     0                       # Read request sizes (log2)
system.mem_ctrls.readPktSize::2                     0                       # Read request sizes (log2)
system.mem_ctrls.readPktSize::3                     0                       # Read request sizes (log2)
system.mem_ctrls.readPktSize::4                     0                       # Read request sizes (log2)
system.mem_ctrls.readPktSize::5                     0                       # Read request sizes (log2)
system.mem_ctrls.readPktSize::6                   966                       # Read request sizes (log2)
system.mem_ctrls.writePktSize::0                    0                       # Write request sizes (log2)
system.mem_ctrls.writePktSize::1                    0                       # Write request sizes (log2)
system.mem_ctrls.writePktSize::2                    0                       # Write request sizes (log2)
system.mem_ctrls.writePktSize::3                    0                       # Write request sizes (log2)
system.mem_ctrls.writePktSize::4                    0                       # Write request sizes (log2)
system.mem_ctrls.writePktSize::5                    0                       # Write request sizes (log2)
system.mem_ctrls.writePktSize::6                    0                       # Write request sizes (log2)
system.mem_ctrls.rdQLenPdf::0                     615                       # What read queue length does an incoming req see
system.mem_ctrls.rdQLenPdf::1                     186                       # What read queue length does an incoming req see
system.mem_ctrls.rdQLenPdf::2                      71                       # What read queue length does an incoming req see
system.mem_ctrls.rdQLenPdf::3                      27                       # What read queue length does an incoming req see
system.mem_ctrls.rdQLenPdf::4                      19                       # What read queue length does an incoming req see
system.mem_ctrls.rdQLenPdf::5                      12                       # What read queue length does an incoming req see
system.mem_ctrls.rdQLenPdf::6                      10                       # What read queue length does an incoming req see
system.mem_ctrls.rdQLenPdf::7                      10                       # What read queue length does an incoming req see
system.mem_ctrls.rdQLenPdf::8                      10                       # What read queue length does an incoming req see
system.mem_ctrls.rdQLenPdf::9                       2                       # What read queue length does an incoming req see
system.mem_ctrls.rdQLenPdf::10                      2                       # What read queue length does an incoming req see
system.mem_ctrls.rdQLenPdf::11                      1                       # What read queue length does an incoming req see
system.mem_ctrls.rdQLenPdf::12                      1                       # What read queue length does an incoming req see
system.mem_ctrls.rdQLenPdf::13                      0                       # What read queue length does an incoming req see
system.mem_ctrls.rdQLenPdf::14                      0                       # What read queue length does an incoming req see
system.mem_ctrls.rdQLenPdf::15                      0                       # What read queue length does an incoming req see
system.mem_ctrls.rdQLenPdf::16                      0                       # What read queue length does an incoming req see
system.mem_ctrls.rdQLenPdf::17                      0                       # What read queue length does an incoming req see
system.mem_ctrls.rdQLenPdf::18                      0                       # What read queue length does an incoming req see
system.mem_ctrls.rdQLenPdf::19                      0                       # What read queue length does an incoming req see
system.mem_ctrls.rdQLenPdf::20                      0                       # What read queue length does an incoming req see
system.mem_ctrls.rdQLenPdf::21                      0                       # What read queue length does an incoming req see
system.mem_ctrls.rdQLenPdf::22                      0                       # What read queue length does an incoming req see
system.mem_ctrls.rdQLenPdf::23                      0                       # What read queue length does an incoming req see
system.mem_ctrls.rdQLenPdf::24                      0                       # What read queue length does an incoming req see
system.mem_ctrls.rdQLenPdf::25                      0                       # What read queue length does an incoming req see
system.mem_ctrls.rdQLenPdf::26                      0                       # What read queue length does an incoming req see
system.mem_ctrls.rdQLenPdf::27                      0                       # What read queue length does an incoming req see
system.mem_ctrls.rdQLenPdf::28                      0                       # What read queue length does an incoming req see
system.mem_ctrls.rdQLenPdf::29                      0                       # What read queue length does an incoming req see
system.mem_ctrls.rdQLenPdf::30                      0                       # What read queue length does an incoming req see
system.mem_ctrls.rdQLenPdf::31                      0                       # What read queue length does an incoming req see
system.mem_ctrls.wrQLenPdf::0                       0                       # What write queue length does an incoming req see
system.mem_ctrls.wrQLenPdf::1                       0                       # What write queue length does an incoming req see
system.mem_ctrls.wrQLenPdf::2                       0                       # What write queue length does an incoming req see
system.mem_ctrls.wrQLenPdf::3                       0                       # What write queue length does an incoming req see
system.mem_ctrls.wrQLenPdf::4                       0                       # What write queue length does an incoming req see
system.mem_ctrls.wrQLenPdf::5                       0                       # What write queue length does an incoming req see
system.mem_ctrls.wrQLenPdf::6                       0                       # What write queue length does an incoming req see
system.mem_ctrls.wrQLenPdf::7                       0                       # What write queue length does an incoming req see
system.mem_ctrls.wrQLenPdf::8                       0                       # What write queue length does an incoming req see
system.mem_ctrls.wrQLenPdf::9                       0                       # What write queue length does an incoming req see
system.mem_ctrls.wrQLenPdf::10                      0                       # What write queue length does an incoming req see
system.mem_ctrls.wrQLenPdf::11                      0                       # What write queue length does an incoming req see
system.mem_ctrls.wrQLenPdf::12                      0                       # What write queue length does an incoming req see
system.mem_ctrls.wrQLenPdf::13                      0                       # What write queue length does an incoming req see
system.mem_ctrls.wrQLenPdf::14                      0                       # What write queue length does an incoming req see
system.mem_ctrls.wrQLenPdf::15                      0                       # What write queue length does an incoming req see
system.mem_ctrls.wrQLenPdf::16                      0                       # What write queue length does an incoming req see
system.mem_ctrls.wrQLenPdf::17                      0                       # What write queue length does an incoming req see
system.mem_ctrls.wrQLenPdf::18                      0                       # What write queue length does an incoming req see
system.mem_ctrls.wrQLenPdf::19                      0                       # What write queue length does an incoming req see
system.mem_ctrls.wrQLenPdf::20                      0                       # What write queue length does an incoming req see
system.mem_ctrls.wrQLenPdf::21                      0                       # What write queue length does an incoming req see
system.mem_ctrls.wrQLenPdf::22                      0                       # What write queue length does an incoming req see
system.mem_ctrls.wrQLenPdf::23                      0                       # What write queue length does an incoming req see
system.mem_ctrls.wrQLenPdf::24                      0                       # What write queue length does an incoming req see
system.mem_ctrls.wrQLenPdf::25                      0                       # What write queue length does an incoming req see
system.mem_ctrls.wrQLenPdf::26                      0                       # What write queue length does an incoming req see
system.mem_ctrls.wrQLenPdf::27                      0                       # What write queue length does an incoming req see
system.mem_ctrls.wrQLenPdf::28                      0                       # What write queue length does an incoming req see
system.mem_ctrls.wrQLenPdf::29                      0                       # What write queue length does an incoming req see
system.mem_ctrls.wrQLenPdf::30                      0                       # What write queue length does an incoming req see
system.mem_ctrls.wrQLenPdf::31                      0                       # What write queue length does an incoming req see
system.mem_ctrls.wrQLenPdf::32                      0                       # What write queue length does an incoming req see
system.mem_ctrls.wrQLenPdf::33                      0                       # What write queue length does an incoming req see
system.mem_ctrls.wrQLenPdf::34                      0                       # What write queue length does an incoming req see
system.mem_ctrls.wrQLenPdf::35                      0                       # What write queue length does an incoming req see
system.mem_ctrls.wrQLenPdf::36                      0                       # What write queue length does an incoming req see
system.mem_ctrls.wrQLenPdf::37                      0                       # What write queue length does an incoming req see
system.mem_ctrls.wrQLenPdf::38                      0                       # What write queue length does an incoming req see
system.mem_ctrls.wrQLenPdf::39                      0                       # What write queue length does an incoming req see
system.mem_ctrls.wrQLenPdf::40                      0                       # What write queue length does an incoming req see
system.mem_ctrls.wrQLenPdf::41                      0                       # What write queue length does an incoming req see
system.mem_ctrls.wrQLenPdf::42                      0                       # What write queue length does an incoming req see
system.mem_ctrls.wrQLenPdf::43                      0                       # What write queue length does an incoming req see
system.mem_ctrls.wrQLenPdf::44                      0                       # What write queue length does an incoming req see
system.mem_ctrls.wrQLenPdf::45                      0                       # What write queue length does an incoming req see
system.mem_ctrls.wrQLenPdf::46                      0                       # What write queue length does an incoming req see
system.mem_ctrls.wrQLenPdf::47                      0                       # What write queue length does an incoming req see
system.mem_ctrls.wrQLenPdf::48                      0                       # What write queue length does an incoming req see
system.mem_ctrls.wrQLenPdf::49                      0                       # What write queue length does an incoming req see
system.mem_ctrls.wrQLenPdf::50                      0                       # What write queue length does an incoming req see
system.mem_ctrls.wrQLenPdf::51                      0                       # What write queue length does an incoming req see
system.mem_ctrls.wrQLenPdf::52                      0                       # What write queue length does an incoming req see
system.mem_ctrls.wrQLenPdf::53                      0                       # What write queue length does an incoming req see
system.mem_ctrls.wrQLenPdf::54                      0                       # What write queue length does an incoming req see
system.mem_ctrls.wrQLenPdf::55                      0                       # What write queue length does an incoming req see
system.mem_ctrls.wrQLenPdf::56                      0                       # What write queue length does an incoming req see
system.mem_ctrls.wrQLenPdf::57                      0                       # What write queue length does an incoming req see
system.mem_ctrls.wrQLenPdf::58                      0                       # What write queue length does an incoming req see
system.mem_ctrls.wrQLenPdf::59                      0                       # What write queue length does an incoming req see
system.mem_ctrls.wrQLenPdf::60                      0                       # What write queue length does an incoming req see
system.mem_ctrls.wrQLenPdf::61                      0                       # What write queue length does an incoming req see
system.mem_ctrls.wrQLenPdf::62                      0                       # What write queue length does an incoming req see
system.mem_ctrls.wrQLenPdf::63                      0                       # What write queue length does an incoming req see
system.mem_ctrls.bytesPerActivate::samples          177                       # Bytes accessed per row activation
system.mem_ctrls.bytesPerActivate::mean    331.932203                       # Bytes accessed per row activation
system.mem_ctrls.bytesPerActivate::gmean   195.015275                       # Bytes accessed per row activation
system.mem_ctrls.bytesPerActivate::stdev   339.303156                       # Bytes accessed per row activation
system.mem_ctrls.bytesPerActivate::0-127           63     35.59%     35.59% # Bytes accessed per row activation
system.mem_ctrls.bytesPerActivate::128-255           36     20.34%     55.93% # Bytes accessed per row activation
system.mem_ctrls.bytesPerActivate::256-383           25     14.12%     70.06% # Bytes accessed per row activation
system.mem_ctrls.bytesPerActivate::384-511            6      3.39%     73.45% # Bytes accessed per row activation
system.mem_ctrls.bytesPerActivate::512-639            8      4.52%     77.97% # Bytes accessed per row activation
system.mem_ctrls.bytesPerActivate::640-767            6      3.39%     81.36% # Bytes accessed per row activation
system.mem_ctrls.bytesPerActivate::768-895            8      4.52%     85.88% # Bytes accessed per row activation
system.mem_ctrls.bytesPerActivate::896-1023            3      1.69%     87.57% # Bytes accessed per row activation
system.mem_ctrls.bytesPerActivate::1024-1151           22     12.43%    100.00% # Bytes accessed per row activation
system.mem_ctrls.bytesPerActivate::total          177                       # Bytes accessed per row activation
system.mem_ctrls.totQLat                     45620715                       # Total ticks spent queuing
system.mem_ctrls.totMemAccLat                63733215                       # Total ticks spent from burst creation until serviced by the DRAM
system.mem_ctrls.totBusLat                    4830000                       # Total ticks spent in databus transfers
system.mem_ctrls.avgQLat                     47226.41                       # Average queueing delay per DRAM burst
system.mem_ctrls.avgBusLat                    5000.00                       # Average bus latency per DRAM burst
system.mem_ctrls.avgMemAccLat                65976.41                       # Average memory access latency per DRAM burst
system.mem_ctrls.avgRdBW                         0.60                       # Average DRAM read bandwidth in MiByte/s
system.mem_ctrls.avgWrBW                         0.00                       # Average achieved write bandwidth in MiByte/s
system.mem_ctrls.avgRdBWSys                      0.60                       # Average system read bandwidth in MiByte/s
system.mem_ctrls.avgWrBWSys                      0.00                       # Average system write bandwidth in MiByte/s
system.mem_ctrls.peakBW                      12800.00                       # Theoretical peak bandwidth in MiByte/s
system.mem_ctrls.busUtil                         0.00                       # Data bus utilization in percentage
system.mem_ctrls.busUtilRead                     0.00                       # Data bus utilization in percentage for reads
system.mem_ctrls.busUtilWrite                    0.00                       # Data bus utilization in percentage for writes
system.mem_ctrls.avgRdQLen                       2.30                       # Average read queue length when enqueuing
system.mem_ctrls.avgWrQLen                       0.00                       # Average write queue length when enqueuing
system.mem_ctrls.readRowHits                      779                       # Number of row buffer hits during reads
system.mem_ctrls.writeRowHits                       0                       # Number of row buffer hits during writes
system.mem_ctrls.readRowHitRate                 80.64                       # Row buffer hit rate for reads
system.mem_ctrls.writeRowHitRate                  nan                       # Row buffer hit rate for writes
system.mem_ctrls.avgGap                  106446681.16                       # Average gap between requests
system.mem_ctrls.pageHitRate                    80.64                       # Row buffer hit rate, read and write combined
system.mem_ctrls_0.actEnergy                   556920                       # Energy for activate commands per rank (pJ)
system.mem_ctrls_0.preEnergy                   277035                       # Energy for precharge commands per rank (pJ)
system.mem_ctrls_0.readEnergy                 3855600                       # Energy for read commands per rank (pJ)
system.mem_ctrls_0.writeEnergy                      0                       # Energy for write commands per rank (pJ)
system.mem_ctrls_0.refreshEnergy         15366000.000000                       # Energy for refresh commands per rank (pJ)
system.mem_ctrls_0.actBackEnergy              9085230                       # Energy for active background per rank (pJ)
system.mem_ctrls_0.preBackEnergy               852000                       # Energy for precharge background per rank (pJ)
system.mem_ctrls_0.actPowerDownEnergy        45422730                       # Energy for active power-down per rank (pJ)
system.mem_ctrls_0.prePowerDownEnergy        15666240                       # Energy for precharge power-down per rank (pJ)
system.mem_ctrls_0.selfRefreshEnergy      24642349800                       # Energy for self refresh per rank (pJ)
system.mem_ctrls_0.totalEnergy            24733431555                       # Total energy per rank (pJ)
system.mem_ctrls_0.averagePower            240.533229                       # Core power per rank (mW)
system.mem_ctrls_0.totalIdleTime         102805338500                       # Total Idle time Per DRAM Rank
system.mem_ctrls_0.memoryStateTime::IDLE      1447000                       # Time in different power states
system.mem_ctrls_0.memoryStateTime::REF       6530000                       # Time in different power states
system.mem_ctrls_0.memoryStateTime::SREF 102664953500                       # Time in different power states
system.mem_ctrls_0.memoryStateTime::PRE_PDN     40798250                       # Time in different power states
system.mem_ctrls_0.memoryStateTime::ACT      14160250                       # Time in different power states
system.mem_ctrls_0.memoryStateTime::ACT_PDN     99614000                       # Time in different power states
system.mem_ctrls_1.actEnergy                   778260                       # Energy for activate commands per rank (pJ)
system.mem_ctrls_1.preEnergy                   394680                       # Energy for precharge commands per rank (pJ)
system.mem_ctrls_1.readEnergy                 3034500                       # Energy for read commands per rank (pJ)
system.mem_ctrls_1.writeEnergy                      0                       # Energy for write commands per rank (pJ)
system.mem_ctrls_1.refreshEnergy         30732000.000000                       # Energy for refresh commands per rank (pJ)
system.mem_ctrls_1.actBackEnergy             10296480                       # Energy for active background per rank (pJ)
system.mem_ctrls_1.preBackEnergy              2041440                       # Energy for precharge background per rank (pJ)
system.mem_ctrls_1.actPowerDownEnergy        63867360                       # Energy for active power-down per rank (pJ)
system.mem_ctrls_1.prePowerDownEnergy        44528640                       # Energy for precharge power-down per rank (pJ)
system.mem_ctrls_1.selfRefreshEnergy      24618744600                       # Energy for self refresh per rank (pJ)
system.mem_ctrls_1.totalEnergy            24774417960                       # Total energy per rank (pJ)
system.mem_ctrls_1.averagePower            240.931823                       # Core power per rank (mW)
system.mem_ctrls_1.totalIdleTime         102799555250                       # Total Idle time Per DRAM Rank
system.mem_ctrls_1.memoryStateTime::IDLE      4195000                       # Time in different power states
system.mem_ctrls_1.memoryStateTime::REF      13090000                       # Time in different power states
system.mem_ctrls_1.memoryStateTime::SREF 102543590750                       # Time in different power states
system.mem_ctrls_1.memoryStateTime::PRE_PDN    115961007                       # Time in different power states
system.mem_ctrls_1.memoryStateTime::ACT      10662750                       # Time in different power states
system.mem_ctrls_1.memoryStateTime::ACT_PDN    140003493                       # Time in different power states
system.pwrStateResidencyTicks::UNDEFINED 102827503000                       # Cumulative time (in ticks) in various power states
system.cpu.branchPred.lookups                35567971                       # Number of BP lookups
system.cpu.branchPred.condPredicted          28501586                       # Number of conditional branches predicted
system.cpu.branchPred.condIncorrect           4977773                       # Number of conditional branches incorrect
system.cpu.branchPred.BTBLookups             28487411                       # Number of BTB lookups
system.cpu.branchPred.BTBHits                28478089                       # Number of BTB hits
system.cpu.branchPred.BTBCorrect                    0                       # Number of correct BTB predictions (this stat may not work properly.
system.cpu.branchPred.BTBHitPct             99.967277                       # BTB Hit Percentage
system.cpu.branchPred.usedRAS                 2455534                       # Number of times the RAS was used to get a target.
system.cpu.branchPred.RASInCorrect               2107                       # Number of incorrect RAS predictions.
system.cpu.branchPred.indirectLookups             639                       # Number of indirect predictor lookups.
system.cpu.branchPred.indirectHits                319                       # Number of indirect target hits.
system.cpu.branchPred.indirectMisses              320                       # Number of indirect misses.
system.cpu.branchPredindirectMispredicted          124                       # Number of mispredicted indirect branches.
system.cpu.branchPred.atLeastOneCorrectExpert      3872390                       # Number of mispredicts where there was at least one correct not-selected scheme.
system.cpu_voltage_domain.voltage                   1                       # Voltage in Volts
system.cpu_clk_domain.clock                       500                       # Clock period in ticks
system.cpu.dstage2_mmu.stage2_tlb.walker.pwrStateResidencyTicks::UNDEFINED 102827503000                       # Cumulative time (in ticks) in various power states
system.cpu.dstage2_mmu.stage2_tlb.walker.walks            0                       # Table walker walks requested
system.cpu.dstage2_mmu.stage2_tlb.walker.walkRequestOrigin_Requested::Data            0                       # Table walker requests started/completed, data/inst
system.cpu.dstage2_mmu.stage2_tlb.walker.walkRequestOrigin_Requested::Inst            0                       # Table walker requests started/completed, data/inst
system.cpu.dstage2_mmu.stage2_tlb.walker.walkRequestOrigin_Requested::total            0                       # Table walker requests started/completed, data/inst
system.cpu.dstage2_mmu.stage2_tlb.walker.walkRequestOrigin_Completed::Data            0                       # Table walker requests started/completed, data/inst
system.cpu.dstage2_mmu.stage2_tlb.walker.walkRequestOrigin_Completed::Inst            0                       # Table walker requests started/completed, data/inst
system.cpu.dstage2_mmu.stage2_tlb.walker.walkRequestOrigin_Completed::total            0                       # Table walker requests started/completed, data/inst
system.cpu.dstage2_mmu.stage2_tlb.walker.walkRequestOrigin::total            0                       # Table walker requests started/completed, data/inst
system.cpu.dstage2_mmu.stage2_tlb.inst_hits            0                       # ITB inst hits
system.cpu.dstage2_mmu.stage2_tlb.inst_misses            0                       # ITB inst misses
system.cpu.dstage2_mmu.stage2_tlb.read_hits            0                       # DTB read hits
system.cpu.dstage2_mmu.stage2_tlb.read_misses            0                       # DTB read misses
system.cpu.dstage2_mmu.stage2_tlb.write_hits            0                       # DTB write hits
system.cpu.dstage2_mmu.stage2_tlb.write_misses            0                       # DTB write misses
system.cpu.dstage2_mmu.stage2_tlb.flush_tlb            0                       # Number of times complete TLB was flushed
system.cpu.dstage2_mmu.stage2_tlb.flush_tlb_mva            0                       # Number of times TLB was flushed by MVA
system.cpu.dstage2_mmu.stage2_tlb.flush_tlb_mva_asid            0                       # Number of times TLB was flushed by MVA & ASID
system.cpu.dstage2_mmu.stage2_tlb.flush_tlb_asid            0                       # Number of times TLB was flushed by ASID
system.cpu.dstage2_mmu.stage2_tlb.flush_entries            0                       # Number of entries that have been flushed from TLB
system.cpu.dstage2_mmu.stage2_tlb.align_faults            0                       # Number of TLB faults due to alignment restrictions
system.cpu.dstage2_mmu.stage2_tlb.prefetch_faults            0                       # Number of TLB faults due to prefetch
system.cpu.dstage2_mmu.stage2_tlb.domain_faults            0                       # Number of TLB faults due to domain restrictions
system.cpu.dstage2_mmu.stage2_tlb.perms_faults            0                       # Number of TLB faults due to permissions restrictions
system.cpu.dstage2_mmu.stage2_tlb.read_accesses            0                       # DTB read accesses
system.cpu.dstage2_mmu.stage2_tlb.write_accesses            0                       # DTB write accesses
system.cpu.dstage2_mmu.stage2_tlb.inst_accesses            0                       # ITB inst accesses
system.cpu.dstage2_mmu.stage2_tlb.hits              0                       # DTB hits
system.cpu.dstage2_mmu.stage2_tlb.misses            0                       # DTB misses
system.cpu.dstage2_mmu.stage2_tlb.accesses            0                       # DTB accesses
system.cpu.dtb.walker.pwrStateResidencyTicks::UNDEFINED 102827503000                       # Cumulative time (in ticks) in various power states
system.cpu.dtb.walker.walks                         0                       # Table walker walks requested
system.cpu.dtb.walker.walkRequestOrigin_Requested::Data            0                       # Table walker requests started/completed, data/inst
system.cpu.dtb.walker.walkRequestOrigin_Requested::Inst            0                       # Table walker requests started/completed, data/inst
system.cpu.dtb.walker.walkRequestOrigin_Requested::total            0                       # Table walker requests started/completed, data/inst
system.cpu.dtb.walker.walkRequestOrigin_Completed::Data            0                       # Table walker requests started/completed, data/inst
system.cpu.dtb.walker.walkRequestOrigin_Completed::Inst            0                       # Table walker requests started/completed, data/inst
system.cpu.dtb.walker.walkRequestOrigin_Completed::total            0                       # Table walker requests started/completed, data/inst
system.cpu.dtb.walker.walkRequestOrigin::total            0                       # Table walker requests started/completed, data/inst
system.cpu.dtb.inst_hits                            0                       # ITB inst hits
system.cpu.dtb.inst_misses                          0                       # ITB inst misses
system.cpu.dtb.read_hits                            0                       # DTB read hits
system.cpu.dtb.read_misses                          0                       # DTB read misses
system.cpu.dtb.write_hits                           0                       # DTB write hits
system.cpu.dtb.write_misses                         0                       # DTB write misses
system.cpu.dtb.flush_tlb                            0                       # Number of times complete TLB was flushed
system.cpu.dtb.flush_tlb_mva                        0                       # Number of times TLB was flushed by MVA
system.cpu.dtb.flush_tlb_mva_asid                   0                       # Number of times TLB was flushed by MVA & ASID
system.cpu.dtb.flush_tlb_asid                       0                       # Number of times TLB was flushed by ASID
system.cpu.dtb.flush_entries                        0                       # Number of entries that have been flushed from TLB
system.cpu.dtb.align_faults                         0                       # Number of TLB faults due to alignment restrictions
system.cpu.dtb.prefetch_faults                      0                       # Number of TLB faults due to prefetch
system.cpu.dtb.domain_faults                        0                       # Number of TLB faults due to domain restrictions
system.cpu.dtb.perms_faults                         0                       # Number of TLB faults due to permissions restrictions
system.cpu.dtb.read_accesses                        0                       # DTB read accesses
system.cpu.dtb.write_accesses                       0                       # DTB write accesses
system.cpu.dtb.inst_accesses                        0                       # ITB inst accesses
system.cpu.dtb.hits                                 0                       # DTB hits
system.cpu.dtb.misses                               0                       # DTB misses
system.cpu.dtb.accesses                             0                       # DTB accesses
system.cpu.istage2_mmu.stage2_tlb.walker.pwrStateResidencyTicks::UNDEFINED 102827503000                       # Cumulative time (in ticks) in various power states
system.cpu.istage2_mmu.stage2_tlb.walker.walks            0                       # Table walker walks requested
system.cpu.istage2_mmu.stage2_tlb.walker.walkRequestOrigin_Requested::Data            0                       # Table walker requests started/completed, data/inst
system.cpu.istage2_mmu.stage2_tlb.walker.walkRequestOrigin_Requested::Inst            0                       # Table walker requests started/completed, data/inst
system.cpu.istage2_mmu.stage2_tlb.walker.walkRequestOrigin_Requested::total            0                       # Table walker requests started/completed, data/inst
system.cpu.istage2_mmu.stage2_tlb.walker.walkRequestOrigin_Completed::Data            0                       # Table walker requests started/completed, data/inst
system.cpu.istage2_mmu.stage2_tlb.walker.walkRequestOrigin_Completed::Inst            0                       # Table walker requests started/completed, data/inst
system.cpu.istage2_mmu.stage2_tlb.walker.walkRequestOrigin_Completed::total            0                       # Table walker requests started/completed, data/inst
system.cpu.istage2_mmu.stage2_tlb.walker.walkRequestOrigin::total            0                       # Table walker requests started/completed, data/inst
system.cpu.istage2_mmu.stage2_tlb.inst_hits            0                       # ITB inst hits
system.cpu.istage2_mmu.stage2_tlb.inst_misses            0                       # ITB inst misses
system.cpu.istage2_mmu.stage2_tlb.read_hits            0                       # DTB read hits
system.cpu.istage2_mmu.stage2_tlb.read_misses            0                       # DTB read misses
system.cpu.istage2_mmu.stage2_tlb.write_hits            0                       # DTB write hits
system.cpu.istage2_mmu.stage2_tlb.write_misses            0                       # DTB write misses
system.cpu.istage2_mmu.stage2_tlb.flush_tlb            0                       # Number of times complete TLB was flushed
system.cpu.istage2_mmu.stage2_tlb.flush_tlb_mva            0                       # Number of times TLB was flushed by MVA
system.cpu.istage2_mmu.stage2_tlb.flush_tlb_mva_asid            0                       # Number of times TLB was flushed by MVA & ASID
system.cpu.istage2_mmu.stage2_tlb.flush_tlb_asid            0                       # Number of times TLB was flushed by ASID
system.cpu.istage2_mmu.stage2_tlb.flush_entries            0                       # Number of entries that have been flushed from TLB
system.cpu.istage2_mmu.stage2_tlb.align_faults            0                       # Number of TLB faults due to alignment restrictions
system.cpu.istage2_mmu.stage2_tlb.prefetch_faults            0                       # Number of TLB faults due to prefetch
system.cpu.istage2_mmu.stage2_tlb.domain_faults            0                       # Number of TLB faults due to domain restrictions
system.cpu.istage2_mmu.stage2_tlb.perms_faults            0                       # Number of TLB faults due to permissions restrictions
system.cpu.istage2_mmu.stage2_tlb.read_accesses            0                       # DTB read accesses
system.cpu.istage2_mmu.stage2_tlb.write_accesses            0                       # DTB write accesses
system.cpu.istage2_mmu.stage2_tlb.inst_accesses            0                       # ITB inst accesses
system.cpu.istage2_mmu.stage2_tlb.hits              0                       # DTB hits
system.cpu.istage2_mmu.stage2_tlb.misses            0                       # DTB misses
system.cpu.istage2_mmu.stage2_tlb.accesses            0                       # DTB accesses
system.cpu.itb.walker.pwrStateResidencyTicks::UNDEFINED 102827503000                       # Cumulative time (in ticks) in various power states
system.cpu.itb.walker.walks                         0                       # Table walker walks requested
system.cpu.itb.walker.walkRequestOrigin_Requested::Data            0                       # Table walker requests started/completed, data/inst
system.cpu.itb.walker.walkRequestOrigin_Requested::Inst            0                       # Table walker requests started/completed, data/inst
system.cpu.itb.walker.walkRequestOrigin_Requested::total            0                       # Table walker requests started/completed, data/inst
system.cpu.itb.walker.walkRequestOrigin_Completed::Data            0                       # Table walker requests started/completed, data/inst
system.cpu.itb.walker.walkRequestOrigin_Completed::Inst            0                       # Table walker requests started/completed, data/inst
system.cpu.itb.walker.walkRequestOrigin_Completed::total            0                       # Table walker requests started/completed, data/inst
system.cpu.itb.walker.walkRequestOrigin::total            0                       # Table walker requests started/completed, data/inst
system.cpu.itb.inst_hits                            0                       # ITB inst hits
system.cpu.itb.inst_misses                          0                       # ITB inst misses
system.cpu.itb.read_hits                            0                       # DTB read hits
system.cpu.itb.read_misses                          0                       # DTB read misses
system.cpu.itb.write_hits                           0                       # DTB write hits
system.cpu.itb.write_misses                         0                       # DTB write misses
system.cpu.itb.flush_tlb                            0                       # Number of times complete TLB was flushed
system.cpu.itb.flush_tlb_mva                        0                       # Number of times TLB was flushed by MVA
system.cpu.itb.flush_tlb_mva_asid                   0                       # Number of times TLB was flushed by MVA & ASID
system.cpu.itb.flush_tlb_asid                       0                       # Number of times TLB was flushed by ASID
system.cpu.itb.flush_entries                        0                       # Number of entries that have been flushed from TLB
system.cpu.itb.align_faults                         0                       # Number of TLB faults due to alignment restrictions
system.cpu.itb.prefetch_faults                      0                       # Number of TLB faults due to prefetch
system.cpu.itb.domain_faults                        0                       # Number of TLB faults due to domain restrictions
system.cpu.itb.perms_faults                         0                       # Number of TLB faults due to permissions restrictions
system.cpu.itb.read_accesses                        0                       # DTB read accesses
system.cpu.itb.write_accesses                       0                       # DTB write accesses
system.cpu.itb.inst_accesses                        0                       # ITB inst accesses
system.cpu.itb.hits                                 0                       # DTB hits
system.cpu.itb.misses                               0                       # DTB misses
system.cpu.itb.accesses                             0                       # DTB accesses
system.cpu.workload.numSyscalls                    11                       # Number of system calls
system.cpu.pwrStateResidencyTicks::ON    102827503000                       # Cumulative time (in ticks) in various power states
system.cpu.numCycles                        205655007                       # number of cpu cycles simulated
system.cpu.numWorkItemsStarted                      0                       # number of work items this cpu started
system.cpu.numWorkItemsCompleted                    0                       # number of work items this cpu completed
system.cpu.fetch.icacheStallCycles            4320639                       # Number of cycles fetch is stalled on an Icache miss
system.cpu.fetch.Insts                      370834303                       # Number of instructions fetch has processed
system.cpu.fetch.Branches                    35567971                       # Number of branches that fetch encountered
system.cpu.fetch.predictedBranches           30933942                       # Number of branches that fetch has predicted taken
system.cpu.fetch.Cycles                     196311731                       # Number of cycles fetch has run and was not squashing or blocked
system.cpu.fetch.SquashCycles                 9962536                       # Number of cycles fetch has spent squashing
system.cpu.fetch.MiscStallCycles                  295                       # Number of cycles fetch has spent waiting on interrupts, or bad addresses, or out of MSHRs
system.cpu.fetch.IcacheWaitRetryStallCycles          592                       # Number of stall cycles due to full MSHR
system.cpu.fetch.CacheLines                 131952354                       # Number of cache lines fetched
system.cpu.fetch.IcacheSquashes                   246                       # Number of outstanding Icache misses that were squashed
system.cpu.fetch.rateDist::samples          205614525                       # Number of instructions fetched each cycle (Total)
system.cpu.fetch.rateDist::mean              1.827438                       # Number of instructions fetched each cycle (Total)
system.cpu.fetch.rateDist::stdev             0.981115                       # Number of instructions fetched each cycle (Total)
system.cpu.fetch.rateDist::underflows               0      0.00%      0.00% # Number of instructions fetched each cycle (Total)
system.cpu.fetch.rateDist::0                 10824716      5.26%      5.26% # Number of instructions fetched each cycle (Total)
system.cpu.fetch.rateDist::1                 87288775     42.45%     47.72% # Number of instructions fetched each cycle (Total)
system.cpu.fetch.rateDist::2                 34043992     16.56%     64.27% # Number of instructions fetched each cycle (Total)
system.cpu.fetch.rateDist::3                 73457042     35.73%    100.00% # Number of instructions fetched each cycle (Total)
system.cpu.fetch.rateDist::overflows                0      0.00%    100.00% # Number of instructions fetched each cycle (Total)
system.cpu.fetch.rateDist::min_value                0                       # Number of instructions fetched each cycle (Total)
system.cpu.fetch.rateDist::max_value                3                       # Number of instructions fetched each cycle (Total)
system.cpu.fetch.rateDist::total            205614525                       # Number of instructions fetched each cycle (Total)
system.cpu.fetch.branchRate                  0.172950                       # Number of branch fetches per cycle
system.cpu.fetch.rate                        1.803186                       # Number of inst fetches per cycle
system.cpu.decode.IdleCycles                 20175107                       # Number of cycles decode is idle
system.cpu.decode.BlockedCycles              25443198                       # Number of cycles decode is blocked
system.cpu.decode.RunCycles                 140729465                       # Number of cycles decode is running
system.cpu.decode.UnblockCycles              14285684                       # Number of cycles decode is unblocking
system.cpu.decode.SquashCycles                4981071                       # Number of cycles decode is squashing
system.cpu.decode.BranchResolved             25159180                       # Number of times decode resolved a branch
system.cpu.decode.BranchMispred                   209                       # Number of times decode detected a branch misprediction
system.cpu.decode.DecodedInsts              336531531                       # Number of instructions handled by decode
system.cpu.decode.SquashedInsts              18151504                       # Number of squashed instructions handled by decode
system.cpu.rename.SquashCycles                4981071                       # Number of cycles rename is squashing
system.cpu.rename.IdleCycles                 40384972                       # Number of cycles rename is idle
system.cpu.rename.BlockCycles                11379884                       # Number of cycles rename is blocking
system.cpu.rename.serializeStallCycles          12663                       # count of cycles rename stalled for serializing inst
system.cpu.rename.RunCycles                 134336024                       # Number of cycles rename is running
system.cpu.rename.UnblockCycles              14519911                       # Number of cycles rename is unblocking
system.cpu.rename.RenamedInsts              316210975                       # Number of instructions processed by rename
system.cpu.rename.SquashedInsts               8119004                       # Number of squashed instructions processed by rename
system.cpu.rename.ROBFullEvents               2980257                       # Number of times rename has blocked due to ROB full
system.cpu.rename.IQFullEvents                   1205                       # Number of times rename has blocked due to IQ full
system.cpu.rename.LQFullEvents                6660907                       # Number of times rename has blocked due to LQ full
system.cpu.rename.SQFullEvents                   6304                       # Number of times rename has blocked due to SQ full
system.cpu.rename.FullRegisterEvents              715                       # Number of times there has been no free registers
system.cpu.rename.RenamedOperands           327325827                       # Number of destination operands rename has renamed
system.cpu.rename.RenameLookups             438682297                       # Number of register rename lookups that rename has made
system.cpu.rename.int_rename_lookups        368650056                       # Number of integer rename lookups
system.cpu.rename.vec_rename_lookups             7986                       # Number of vector rename lookups
system.cpu.rename.CommittedMaps             199069041                       # Number of HB maps that are committed
system.cpu.rename.UndoneMaps                128256786                       # Number of HB maps that are undone due to squashing
system.cpu.rename.serializingInsts                435                       # count of serializing insts renamed
system.cpu.rename.tempSerializingInsts            313                       # count of temporary serializing insts renamed
system.cpu.rename.skidInsts                  25437641                       # count of insts added to the skid buffer
system.cpu.memDep0.insertedLoads            131583585                       # Number of loads inserted to the mem dependence unit.
system.cpu.memDep0.insertedStores            30139487                       # Number of stores inserted to the mem dependence unit.
system.cpu.memDep0.conflictingLoads          35178843                       # Number of conflicting loads.
system.cpu.memDep0.conflictingStores          7511711                       # Number of conflicting stores.
system.cpu.iq.iqInstsAdded                  307541253                       # Number of instructions added to the IQ (excludes non-spec)
system.cpu.iq.iqNonSpecInstsAdded                 302                       # Number of non-speculative instructions added to the IQ
system.cpu.iq.iqInstsIssued                 252464642                       # Number of instructions issued
system.cpu.iq.iqSquashedInstsIssued           2579884                       # Number of squashed instructions issued
system.cpu.iq.iqSquashedInstsExamined       115834180                       # Number of squashed instructions iterated over during squash; mainly for profiling
system.cpu.iq.iqSquashedOperandsExamined    106944861                       # Number of squashed operands that are examined and possibly removed from graph
system.cpu.iq.iqSquashedNonSpecRemoved             74                       # Number of squashed non-spec instructions that were removed
system.cpu.iq.issued_per_cycle::samples     205614525                       # Number of insts issued each cycle
system.cpu.iq.issued_per_cycle::mean         1.227854                       # Number of insts issued each cycle
system.cpu.iq.issued_per_cycle::stdev        0.946394                       # Number of insts issued each cycle
system.cpu.iq.issued_per_cycle::underflows            0      0.00%      0.00% # Number of insts issued each cycle
system.cpu.iq.issued_per_cycle::0            56129537     27.30%     27.30% # Number of insts issued each cycle
system.cpu.iq.issued_per_cycle::1            64098228     31.17%     58.47% # Number of insts issued each cycle
system.cpu.iq.issued_per_cycle::2            68064261     33.10%     91.58% # Number of insts issued each cycle
system.cpu.iq.issued_per_cycle::3            17052198      8.29%     99.87% # Number of insts issued each cycle
system.cpu.iq.issued_per_cycle::4              270207      0.13%    100.00% # Number of insts issued each cycle
system.cpu.iq.issued_per_cycle::5                  94      0.00%    100.00% # Number of insts issued each cycle
system.cpu.iq.issued_per_cycle::6                   0      0.00%    100.00% # Number of insts issued each cycle
system.cpu.iq.issued_per_cycle::7                   0      0.00%    100.00% # Number of insts issued each cycle
system.cpu.iq.issued_per_cycle::8                   0      0.00%    100.00% # Number of insts issued each cycle
system.cpu.iq.issued_per_cycle::overflows            0      0.00%    100.00% # Number of insts issued each cycle
system.cpu.iq.issued_per_cycle::min_value            0                       # Number of insts issued each cycle
system.cpu.iq.issued_per_cycle::max_value            5                       # Number of insts issued each cycle
system.cpu.iq.issued_per_cycle::total       205614525                       # Number of insts issued each cycle
system.cpu.iq.fu_full::No_OpClass                   0      0.00%      0.00% # attempts to use FU when none available
system.cpu.iq.fu_full::IntAlu                 4379829      6.52%      6.52% # attempts to use FU when none available
system.cpu.iq.fu_full::IntMult                      0      0.00%      6.52% # attempts to use FU when none available
system.cpu.iq.fu_full::IntDiv                       0      0.00%      6.52% # attempts to use FU when none available
system.cpu.iq.fu_full::FloatAdd                     0      0.00%      6.52% # attempts to use FU when none available
system.cpu.iq.fu_full::FloatCmp                     0      0.00%      6.52% # attempts to use FU when none available
system.cpu.iq.fu_full::FloatCvt                     0      0.00%      6.52% # attempts to use FU when none available
system.cpu.iq.fu_full::FloatMult                    0      0.00%      6.52% # attempts to use FU when none available
system.cpu.iq.fu_full::FloatMultAcc                 0      0.00%      6.52% # attempts to use FU when none available
system.cpu.iq.fu_full::FloatDiv                     0      0.00%      6.52% # attempts to use FU when none available
system.cpu.iq.fu_full::FloatMisc                    0      0.00%      6.52% # attempts to use FU when none available
system.cpu.iq.fu_full::FloatSqrt                    0      0.00%      6.52% # attempts to use FU when none available
system.cpu.iq.fu_full::SimdAdd                      0      0.00%      6.52% # attempts to use FU when none available
system.cpu.iq.fu_full::SimdAddAcc                   0      0.00%      6.52% # attempts to use FU when none available
system.cpu.iq.fu_full::SimdAlu                     23      0.00%      6.52% # attempts to use FU when none available
system.cpu.iq.fu_full::SimdCmp                    119      0.00%      6.52% # attempts to use FU when none available
system.cpu.iq.fu_full::SimdCvt                      0      0.00%      6.52% # attempts to use FU when none available
system.cpu.iq.fu_full::SimdMisc                     0      0.00%      6.52% # attempts to use FU when none available
system.cpu.iq.fu_full::SimdMult                     0      0.00%      6.52% # attempts to use FU when none available
system.cpu.iq.fu_full::SimdMultAcc                  0      0.00%      6.52% # attempts to use FU when none available
system.cpu.iq.fu_full::SimdShift                    0      0.00%      6.52% # attempts to use FU when none available
system.cpu.iq.fu_full::SimdShiftAcc                 0      0.00%      6.52% # attempts to use FU when none available
system.cpu.iq.fu_full::SimdSqrt                     0      0.00%      6.52% # attempts to use FU when none available
system.cpu.iq.fu_full::SimdFloatAdd                 0      0.00%      6.52% # attempts to use FU when none available
system.cpu.iq.fu_full::SimdFloatAlu                 0      0.00%      6.52% # attempts to use FU when none available
system.cpu.iq.fu_full::SimdFloatCmp                 0      0.00%      6.52% # attempts to use FU when none available
system.cpu.iq.fu_full::SimdFloatCvt                 0      0.00%      6.52% # attempts to use FU when none available
system.cpu.iq.fu_full::SimdFloatDiv                 0      0.00%      6.52% # attempts to use FU when none available
system.cpu.iq.fu_full::SimdFloatMisc                0      0.00%      6.52% # attempts to use FU when none available
system.cpu.iq.fu_full::SimdFloatMult                0      0.00%      6.52% # attempts to use FU when none available
system.cpu.iq.fu_full::SimdFloatMultAcc             0      0.00%      6.52% # attempts to use FU when none available
system.cpu.iq.fu_full::SimdFloatSqrt                0      0.00%      6.52% # attempts to use FU when none available
system.cpu.iq.fu_full::MemRead               58103204     86.46%     92.98% # attempts to use FU when none available
system.cpu.iq.fu_full::MemWrite               4720522      7.02%    100.00% # attempts to use FU when none available
system.cpu.iq.fu_full::FloatMemRead                 0      0.00%    100.00% # attempts to use FU when none available
system.cpu.iq.fu_full::FloatMemWrite                0      0.00%    100.00% # attempts to use FU when none available
system.cpu.iq.fu_full::IprAccess                    0      0.00%    100.00% # attempts to use FU when none available
system.cpu.iq.fu_full::InstPrefetch                 0      0.00%    100.00% # attempts to use FU when none available
system.cpu.iq.FU_type_0::No_OpClass               214      0.00%      0.00% # Type of FU issued
system.cpu.iq.FU_type_0::IntAlu             112267755     44.47%     44.47% # Type of FU issued
system.cpu.iq.FU_type_0::IntMult              1501791      0.59%     45.06% # Type of FU issued
system.cpu.iq.FU_type_0::IntDiv                     2      0.00%     45.06% # Type of FU issued
system.cpu.iq.FU_type_0::FloatAdd                   0      0.00%     45.06% # Type of FU issued
system.cpu.iq.FU_type_0::FloatCmp                   0      0.00%     45.06% # Type of FU issued
system.cpu.iq.FU_type_0::FloatCvt                   0      0.00%     45.06% # Type of FU issued
system.cpu.iq.FU_type_0::FloatMult                  0      0.00%     45.06% # Type of FU issued
system.cpu.iq.FU_type_0::FloatMultAcc               0      0.00%     45.06% # Type of FU issued
system.cpu.iq.FU_type_0::FloatDiv                   0      0.00%     45.06% # Type of FU issued
system.cpu.iq.FU_type_0::FloatMisc                  0      0.00%     45.06% # Type of FU issued
system.cpu.iq.FU_type_0::FloatSqrt                  0      0.00%     45.06% # Type of FU issued
system.cpu.iq.FU_type_0::SimdAdd                  511      0.00%     45.06% # Type of FU issued
system.cpu.iq.FU_type_0::SimdAddAcc                 0      0.00%     45.06% # Type of FU issued
system.cpu.iq.FU_type_0::SimdAlu                  908      0.00%     45.06% # Type of FU issued
system.cpu.iq.FU_type_0::SimdCmp                  856      0.00%     45.06% # Type of FU issued
system.cpu.iq.FU_type_0::SimdCvt                    0      0.00%     45.06% # Type of FU issued
system.cpu.iq.FU_type_0::SimdMisc                 707      0.00%     45.06% # Type of FU issued
system.cpu.iq.FU_type_0::SimdMult                   0      0.00%     45.06% # Type of FU issued
system.cpu.iq.FU_type_0::SimdMultAcc                0      0.00%     45.06% # Type of FU issued
system.cpu.iq.FU_type_0::SimdShift                  0      0.00%     45.06% # Type of FU issued
system.cpu.iq.FU_type_0::SimdShiftAcc               0      0.00%     45.06% # Type of FU issued
system.cpu.iq.FU_type_0::SimdSqrt                   0      0.00%     45.06% # Type of FU issued
system.cpu.iq.FU_type_0::SimdFloatAdd               0      0.00%     45.06% # Type of FU issued
system.cpu.iq.FU_type_0::SimdFloatAlu               0      0.00%     45.06% # Type of FU issued
system.cpu.iq.FU_type_0::SimdFloatCmp               0      0.00%     45.06% # Type of FU issued
system.cpu.iq.FU_type_0::SimdFloatCvt               0      0.00%     45.06% # Type of FU issued
system.cpu.iq.FU_type_0::SimdFloatDiv               0      0.00%     45.06% # Type of FU issued
system.cpu.iq.FU_type_0::SimdFloatMisc              0      0.00%     45.06% # Type of FU issued
system.cpu.iq.FU_type_0::SimdFloatMult              0      0.00%     45.06% # Type of FU issued
system.cpu.iq.FU_type_0::SimdFloatMultAcc            0      0.00%     45.06% # Type of FU issued
system.cpu.iq.FU_type_0::SimdFloatSqrt              0      0.00%     45.06% # Type of FU issued
system.cpu.iq.FU_type_0::MemRead            114182641     45.23%     90.29% # Type of FU issued
system.cpu.iq.FU_type_0::MemWrite            24509257      9.71%    100.00% # Type of FU issued
system.cpu.iq.FU_type_0::FloatMemRead               0      0.00%    100.00% # Type of FU issued
system.cpu.iq.FU_type_0::FloatMemWrite              0      0.00%    100.00% # Type of FU issued
system.cpu.iq.FU_type_0::IprAccess                  0      0.00%    100.00% # Type of FU issued
system.cpu.iq.FU_type_0::InstPrefetch               0      0.00%    100.00% # Type of FU issued
system.cpu.iq.FU_type_0::total              252464642                       # Type of FU issued
system.cpu.iq.rate                           1.227612                       # Inst issue rate
system.cpu.iq.fu_busy_cnt                    67203697                       # FU busy when requested
system.cpu.iq.fu_busy_rate                   0.266191                       # FU busy rate (busy events/executed inst)
system.cpu.iq.int_inst_queue_reads          780313513                       # Number of integer instruction queue reads
system.cpu.iq.int_inst_queue_writes         423372340                       # Number of integer instruction queue writes
system.cpu.iq.int_inst_queue_wakeup_accesses    236723520                       # Number of integer instruction queue wakeup accesses
system.cpu.iq.fp_inst_queue_reads                   0                       # Number of floating instruction queue reads
system.cpu.iq.fp_inst_queue_writes                  0                       # Number of floating instruction queue writes
system.cpu.iq.fp_inst_queue_wakeup_accesses            0                       # Number of floating instruction queue wakeup accesses
system.cpu.iq.int_alu_accesses              319660535                       # Number of integer alu accesses
system.cpu.iq.fp_alu_accesses                       0                       # Number of floating point alu accesses
system.cpu.iew.lsq.thread0.forwLoads         29309866                       # Number of loads that had data forwarded from stores
system.cpu.iew.lsq.thread0.invAddrLoads             0                       # Number of loads ignored due to an invalid address
system.cpu.iew.lsq.thread0.squashedLoads     53310421                       # Number of loads squashed
system.cpu.iew.lsq.thread0.ignoredResponses       149132                       # Number of memory responses ignored because the instruction is squashed
system.cpu.iew.lsq.thread0.memOrderViolation         4128                       # Number of memory ordering violations
system.cpu.iew.lsq.thread0.squashedStores     11813426                       # Number of stores squashed
system.cpu.iew.lsq.thread0.invAddrSwpfs             0                       # Number of software prefetches ignored due to an invalid address
system.cpu.iew.lsq.thread0.blockedLoads             0                       # Number of blocked loads due to partial load-store forwarding
system.cpu.iew.lsq.thread0.rescheduledLoads          111                       # Number of loads that were rescheduled
system.cpu.iew.lsq.thread0.cacheBlocked            72                       # Number of times an access to memory failed due to the cache being blocked
system.cpu.iew.iewIdleCycles                        0                       # Number of cycles IEW is idle
system.cpu.iew.iewSquashCycles                4981071                       # Number of cycles IEW is squashing
system.cpu.iew.iewBlockCycles                10874574                       # Number of cycles IEW is blocking
system.cpu.iew.iewUnblockCycles                 17355                       # Number of cycles IEW is unblocking
system.cpu.iew.iewDispatchedInsts           309017802                       # Number of instructions dispatched to IQ
system.cpu.iew.iewDispSquashedInsts                 0                       # Number of squashed instructions skipped by dispatch
system.cpu.iew.iewDispLoadInsts             131583585                       # Number of dispatched load instructions
system.cpu.iew.iewDispStoreInsts             30139487                       # Number of dispatched store instructions
system.cpu.iew.iewDispNonSpecInsts                301                       # Number of dispatched non-speculative instructions
system.cpu.iew.iewIQFullEvents                      0                       # Number of times the IQ has become full, causing a stall
system.cpu.iew.iewLSQFullEvents                 17354                       # Number of times the LSQ has become full, causing a stall
system.cpu.iew.memOrderViolationEvents           4128                       # Number of memory order violations
system.cpu.iew.predictedTakenIncorrect        4243373                       # Number of branches that were predicted taken incorrectly
system.cpu.iew.predictedNotTakenIncorrect      1130594                       # Number of branches that were predicted not taken incorrectly
system.cpu.iew.branchMispredicts              5373967                       # Number of branch mispredicts detected at execute
system.cpu.iew.iewExecutedInsts             243083981                       # Number of executed instructions
system.cpu.iew.iewExecLoadInsts             107468470                       # Number of load instructions executed
system.cpu.iew.iewExecSquashedInsts           9380661                       # Number of squashed instructions skipped in execute
system.cpu.iew.exec_swp                             0                       # number of swp insts executed
system.cpu.iew.exec_nop                       1476247                       # number of nop insts executed
system.cpu.iew.exec_refs                    129924530                       # number of memory reference insts executed
system.cpu.iew.exec_branches                 20609671                       # Number of branches executed
system.cpu.iew.exec_stores                   22456060                       # Number of stores executed
system.cpu.iew.exec_rate                     1.181999                       # Inst execution rate
system.cpu.iew.wb_sent                      239168226                       # cumulative count of insts sent to commit
system.cpu.iew.wb_count                     236728740                       # cumulative count of insts written-back
system.cpu.iew.wb_producers                 190306341                       # num instructions producing a value
system.cpu.iew.wb_consumers                 228621006                       # num instructions consuming a value
system.cpu.iew.wb_rate                       1.151096                       # insts written-back per cycle
system.cpu.iew.wb_fanout                     0.832410                       # average fanout of values written-back
system.cpu.commit.commitSquashedInsts       107681839                       # The number of squashed insts skipped by commit
system.cpu.commit.commitNonSpecStalls             228                       # The number of times commit has been forced to stall to communicate backwards
system.cpu.commit.branchMispredicts           4977576                       # The number of times a branch was mispredicted
system.cpu.commit.committed_per_cycle::samples    189758883                       # Number of insts commited each cycle
system.cpu.commit.committed_per_cycle::mean     1.012606                       # Number of insts commited each cycle
system.cpu.commit.committed_per_cycle::stdev     1.738421                       # Number of insts commited each cycle
system.cpu.commit.committed_per_cycle::underflows            0      0.00%      0.00% # Number of insts commited each cycle
system.cpu.commit.committed_per_cycle::0    102103724     53.81%     53.81% # Number of insts commited each cycle
system.cpu.commit.committed_per_cycle::1     50338778     26.53%     80.33% # Number of insts commited each cycle
system.cpu.commit.committed_per_cycle::2     16816730      8.86%     89.20% # Number of insts commited each cycle
system.cpu.commit.committed_per_cycle::3      5959790      3.14%     92.34% # Number of insts commited each cycle
system.cpu.commit.committed_per_cycle::4      3976675      2.10%     94.43% # Number of insts commited each cycle
system.cpu.commit.committed_per_cycle::5       746604      0.39%     94.83% # Number of insts commited each cycle
system.cpu.commit.committed_per_cycle::6      2170807      1.14%     95.97% # Number of insts commited each cycle
system.cpu.commit.committed_per_cycle::7      3531296      1.86%     97.83% # Number of insts commited each cycle
system.cpu.commit.committed_per_cycle::8      4114479      2.17%    100.00% # Number of insts commited each cycle
system.cpu.commit.committed_per_cycle::overflows            0      0.00%    100.00% # Number of insts commited each cycle
system.cpu.commit.committed_per_cycle::min_value            0                       # Number of insts commited each cycle
system.cpu.commit.committed_per_cycle::max_value            8                       # Number of insts commited each cycle
system.cpu.commit.committed_per_cycle::total    189758883                       # Number of insts commited each cycle
system.cpu.commit.committedInsts            190366014                       # Number of instructions committed
system.cpu.commit.committedOps              192151074                       # Number of ops (including micro ops) committed
system.cpu.commit.swp_count                         0                       # Number of s/w prefetches committed
system.cpu.commit.refs                       96599225                       # Number of memory references committed
system.cpu.commit.loads                      78273164                       # Number of loads committed
system.cpu.commit.membars                         216                       # Number of memory barriers committed
system.cpu.commit.branches                   18218945                       # Number of branches committed
system.cpu.commit.vec_insts                      5148                       # Number of committed Vector instructions.
system.cpu.commit.fp_insts                          0                       # Number of committed floating point instructions.
system.cpu.commit.int_insts                 175381013                       # Number of committed integer instructions.
system.cpu.commit.function_calls               944792                       # Number of function calls committed.
system.cpu.commit.op_class_0::No_OpClass          202      0.00%      0.00% # Class of committed instruction
system.cpu.commit.op_class_0::IntAlu         94048208     48.94%     48.95% # Class of committed instruction
system.cpu.commit.op_class_0::IntMult         1500503      0.78%     49.73% # Class of committed instruction
system.cpu.commit.op_class_0::IntDiv                2      0.00%     49.73% # Class of committed instruction
system.cpu.commit.op_class_0::FloatAdd              0      0.00%     49.73% # Class of committed instruction
system.cpu.commit.op_class_0::FloatCmp              0      0.00%     49.73% # Class of committed instruction
system.cpu.commit.op_class_0::FloatCvt              0      0.00%     49.73% # Class of committed instruction
system.cpu.commit.op_class_0::FloatMult             0      0.00%     49.73% # Class of committed instruction
system.cpu.commit.op_class_0::FloatMultAcc            0      0.00%     49.73% # Class of committed instruction
system.cpu.commit.op_class_0::FloatDiv              0      0.00%     49.73% # Class of committed instruction
system.cpu.commit.op_class_0::FloatMisc             0      0.00%     49.73% # Class of committed instruction
system.cpu.commit.op_class_0::FloatSqrt             0      0.00%     49.73% # Class of committed instruction
system.cpu.commit.op_class_0::SimdAdd             511      0.00%     49.73% # Class of committed instruction
system.cpu.commit.op_class_0::SimdAddAcc            0      0.00%     49.73% # Class of committed instruction
system.cpu.commit.op_class_0::SimdAlu             908      0.00%     49.73% # Class of committed instruction
system.cpu.commit.op_class_0::SimdCmp             808      0.00%     49.73% # Class of committed instruction
system.cpu.commit.op_class_0::SimdCvt               0      0.00%     49.73% # Class of committed instruction
system.cpu.commit.op_class_0::SimdMisc            707      0.00%     49.73% # Class of committed instruction
system.cpu.commit.op_class_0::SimdMult              0      0.00%     49.73% # Class of committed instruction
system.cpu.commit.op_class_0::SimdMultAcc            0      0.00%     49.73% # Class of committed instruction
system.cpu.commit.op_class_0::SimdShift             0      0.00%     49.73% # Class of committed instruction
system.cpu.commit.op_class_0::SimdShiftAcc            0      0.00%     49.73% # Class of committed instruction
system.cpu.commit.op_class_0::SimdSqrt              0      0.00%     49.73% # Class of committed instruction
system.cpu.commit.op_class_0::SimdFloatAdd            0      0.00%     49.73% # Class of committed instruction
system.cpu.commit.op_class_0::SimdFloatAlu            0      0.00%     49.73% # Class of committed instruction
system.cpu.commit.op_class_0::SimdFloatCmp            0      0.00%     49.73% # Class of committed instruction
system.cpu.commit.op_class_0::SimdFloatCvt            0      0.00%     49.73% # Class of committed instruction
system.cpu.commit.op_class_0::SimdFloatDiv            0      0.00%     49.73% # Class of committed instruction
system.cpu.commit.op_class_0::SimdFloatMisc            0      0.00%     49.73% # Class of committed instruction
system.cpu.commit.op_class_0::SimdFloatMult            0      0.00%     49.73% # Class of committed instruction
system.cpu.commit.op_class_0::SimdFloatMultAcc            0      0.00%     49.73% # Class of committed instruction
[...]
system.l2.ReadCleanReq_miss_rate::total      0.977995                       # miss rate for ReadCleanReq accesses
system.l2.ReadSharedReq_miss_rate::cpu.data     0.960396                       # miss rate for ReadSharedReq accesses
system.l2.ReadSharedReq_miss_rate::total     0.960396                       # miss rate for ReadSharedReq accesses
system.l2.demand_miss_rate::cpu.inst         0.977995                       # miss rate for demand accesses
system.l2.demand_miss_rate::cpu.data         0.343808                       # miss rate for demand accesses
system.l2.demand_miss_rate::total            0.616842                       # miss rate for demand accesses
system.l2.overall_miss_rate::cpu.inst        0.977995                       # miss rate for overall accesses
system.l2.overall_miss_rate::cpu.data        0.343808                       # miss rate for overall accesses
system.l2.overall_miss_rate::total           0.616842                       # miss rate for overall accesses
system.l2.ReadExReq_avg_miss_latency::cpu.data 132837.078652                       # average ReadExReq miss latency
system.l2.ReadExReq_avg_miss_latency::total 132837.078652                       # average ReadExReq miss latency
system.l2.ReadCleanReq_avg_miss_latency::cpu.inst 86372.500000                       # average ReadCleanReq miss latency
system.l2.ReadCleanReq_avg_miss_latency::total 86372.500000                       # average ReadCleanReq miss latency
system.l2.ReadSharedReq_avg_miss_latency::cpu.data 105340.206186                       # average ReadSharedReq miss latency
system.l2.ReadSharedReq_avg_miss_latency::total 105340.206186                       # average ReadSharedReq miss latency
system.l2.demand_avg_miss_latency::cpu.inst 86372.500000                       # average overall miss latency
system.l2.demand_avg_miss_latency::cpu.data 118497.311828                       # average overall miss latency
system.l2.demand_avg_miss_latency::total 96569.112628                       # average overall miss latency
system.l2.overall_avg_miss_latency::cpu.inst 86372.500000                       # average overall miss latency
system.l2.overall_avg_miss_latency::cpu.data 118497.311828                       # average overall miss latency
system.l2.overall_avg_miss_latency::total 96569.112628                       # average overall miss latency
system.l2.blocked_cycles::no_mshrs                  0                       # number of cycles access was blocked
system.l2.blocked_cycles::no_targets                0                       # number of cycles access was blocked
system.l2.blocked::no_mshrs                         0                       # number of cycles access was blocked
system.l2.blocked::no_targets                       0                       # number of cycles access was blocked
system.l2.avg_blocked_cycles::no_mshrs            nan                       # average number of cycles each access was blocked
system.l2.avg_blocked_cycles::no_targets          nan                       # average number of cycles each access was blocked
system.l2.ReadExReq_mshr_hits::cpu.data             1                       # number of ReadExReq MSHR hits
system.l2.ReadExReq_mshr_hits::total                1                       # number of ReadExReq MSHR hits
system.l2.ReadSharedReq_mshr_hits::cpu.data            5                       # number of ReadSharedReq MSHR hits
system.l2.ReadSharedReq_mshr_hits::total            5                       # number of ReadSharedReq MSHR hits
system.l2.demand_mshr_hits::cpu.data                6                       # number of demand (read+write) MSHR hits
system.l2.demand_mshr_hits::total                   6                       # number of demand (read+write) MSHR hits
system.l2.overall_mshr_hits::cpu.data               6                       # number of overall MSHR hits
system.l2.overall_mshr_hits::total                  6                       # number of overall MSHR hits
system.l2.HardPFReq_mshr_misses::l2.prefetcher          408                       # number of HardPFReq MSHR misses
system.l2.HardPFReq_mshr_misses::total            408                       # number of HardPFReq MSHR misses
system.l2.ReadExReq_mshr_misses::cpu.data           88                       # number of ReadExReq MSHR misses
system.l2.ReadExReq_mshr_misses::total             88                       # number of ReadExReq MSHR misses
system.l2.ReadCleanReq_mshr_misses::cpu.inst          400                       # number of ReadCleanReq MSHR misses
system.l2.ReadCleanReq_mshr_misses::total          400                       # number of ReadCleanReq MSHR misses
system.l2.ReadSharedReq_mshr_misses::cpu.data           92                       # number of ReadSharedReq MSHR misses
system.l2.ReadSharedReq_mshr_misses::total           92                       # number of ReadSharedReq MSHR misses
system.l2.demand_mshr_misses::cpu.inst            400                       # number of demand (read+write) MSHR misses
system.l2.demand_mshr_misses::cpu.data            180                       # number of demand (read+write) MSHR misses
system.l2.demand_mshr_misses::total               580                       # number of demand (read+write) MSHR misses
system.l2.overall_mshr_misses::cpu.inst           400                       # number of overall MSHR misses
system.l2.overall_mshr_misses::cpu.data           180                       # number of overall MSHR misses
system.l2.overall_mshr_misses::l2.prefetcher          408                       # number of overall MSHR misses
system.l2.overall_mshr_misses::total              988                       # number of overall MSHR misses
system.l2.HardPFReq_mshr_miss_latency::l2.prefetcher     44397860                       # number of HardPFReq MSHR miss cycles
system.l2.HardPFReq_mshr_miss_latency::total     44397860                       # number of HardPFReq MSHR miss cycles
system.l2.ReadExReq_mshr_miss_latency::cpu.data     11279000                       # number of ReadExReq MSHR miss cycles
system.l2.ReadExReq_mshr_miss_latency::total     11279000                       # number of ReadExReq MSHR miss cycles
system.l2.ReadCleanReq_mshr_miss_latency::cpu.inst     32161000                       # number of ReadCleanReq MSHR miss cycles
system.l2.ReadCleanReq_mshr_miss_latency::total     32161000                       # number of ReadCleanReq MSHR miss cycles
system.l2.ReadSharedReq_mshr_miss_latency::cpu.data      9349500                       # number of ReadSharedReq MSHR miss cycles
system.l2.ReadSharedReq_mshr_miss_latency::total      9349500                       # number of ReadSharedReq MSHR miss cycles
system.l2.demand_mshr_miss_latency::cpu.inst     32161000                       # number of demand (read+write) MSHR miss cycles
system.l2.demand_mshr_miss_latency::cpu.data     20628500                       # number of demand (read+write) MSHR miss cycles
system.l2.demand_mshr_miss_latency::total     52789500                       # number of demand (read+write) MSHR miss cycles
system.l2.overall_mshr_miss_latency::cpu.inst     32161000                       # number of overall MSHR miss cycles
system.l2.overall_mshr_miss_latency::cpu.data     20628500                       # number of overall MSHR miss cycles
system.l2.overall_mshr_miss_latency::l2.prefetcher     44397860                       # number of overall MSHR miss cycles
system.l2.overall_mshr_miss_latency::total     97187360                       # number of overall MSHR miss cycles
system.l2.HardPFReq_mshr_miss_rate::l2.prefetcher          inf                       # mshr miss rate for HardPFReq accesses
system.l2.HardPFReq_mshr_miss_rate::total          inf                       # mshr miss rate for HardPFReq accesses
system.l2.ReadExReq_mshr_miss_rate::cpu.data     0.200000                       # mshr miss rate for ReadExReq accesses
system.l2.ReadExReq_mshr_miss_rate::total     0.200000                       # mshr miss rate for ReadExReq accesses
system.l2.ReadCleanReq_mshr_miss_rate::cpu.inst     0.977995                       # mshr miss rate for ReadCleanReq accesses
system.l2.ReadCleanReq_mshr_miss_rate::total     0.977995                       # mshr miss rate for ReadCleanReq accesses
system.l2.ReadSharedReq_mshr_miss_rate::cpu.data     0.910891                       # mshr miss rate for ReadSharedReq accesses
system.l2.ReadSharedReq_mshr_miss_rate::total     0.910891                       # mshr miss rate for ReadSharedReq accesses
system.l2.demand_mshr_miss_rate::cpu.inst     0.977995                       # mshr miss rate for demand accesses
system.l2.demand_mshr_miss_rate::cpu.data     0.332717                       # mshr miss rate for demand accesses
system.l2.demand_mshr_miss_rate::total       0.610526                       # mshr miss rate for demand accesses
system.l2.overall_mshr_miss_rate::cpu.inst     0.977995                       # mshr miss rate for overall accesses
system.l2.overall_mshr_miss_rate::cpu.data     0.332717                       # mshr miss rate for overall accesses
system.l2.overall_mshr_miss_rate::l2.prefetcher          inf                       # mshr miss rate for overall accesses
system.l2.overall_mshr_miss_rate::total      1.040000                       # mshr miss rate for overall accesses
system.l2.HardPFReq_avg_mshr_miss_latency::l2.prefetcher 108818.284314                       # average HardPFReq mshr miss latency
system.l2.HardPFReq_avg_mshr_miss_latency::total 108818.284314                       # average HardPFReq mshr miss latency
system.l2.ReadExReq_avg_mshr_miss_latency::cpu.data 128170.454545                       # average ReadExReq mshr miss latency
system.l2.ReadExReq_avg_mshr_miss_latency::total 128170.454545                       # average ReadExReq mshr miss latency
system.l2.ReadCleanReq_avg_mshr_miss_latency::cpu.inst 80402.500000                       # average ReadCleanReq mshr miss latency
system.l2.ReadCleanReq_avg_mshr_miss_latency::total 80402.500000                       # average ReadCleanReq mshr miss latency
system.l2.ReadSharedReq_avg_mshr_miss_latency::cpu.data       101625                       # average ReadSharedReq mshr miss latency
system.l2.ReadSharedReq_avg_mshr_miss_latency::total       101625                       # average ReadSharedReq mshr miss latency
system.l2.demand_avg_mshr_miss_latency::cpu.inst 80402.500000                       # average overall mshr miss latency
system.l2.demand_avg_mshr_miss_latency::cpu.data 114602.777778                       # average overall mshr miss latency
system.l2.demand_avg_mshr_miss_latency::total 91016.379310                       # average overall mshr miss latency
system.l2.overall_avg_mshr_miss_latency::cpu.inst 80402.500000                       # average overall mshr miss latency
system.l2.overall_avg_mshr_miss_latency::cpu.data 114602.777778                       # average overall mshr miss latency
system.l2.overall_avg_mshr_miss_latency::l2.prefetcher 108818.284314                       # average overall mshr miss latency
system.l2.overall_avg_mshr_miss_latency::total 98367.773279                       # average overall mshr miss latency
system.membus.snoop_filter.tot_requests           966                       # Total number of requests made to the snoop filter.
system.membus.snoop_filter.hit_single_requests           11                       # Number of requests hitting in the snoop filter with a single holder of the requested data.
system.membus.snoop_filter.hit_multi_requests            0                       # Number of requests hitting in the snoop filter with multiple (>1) holders of the requested data.
system.membus.snoop_filter.tot_snoops               0                       # Total number of snoops made to the snoop filter.
system.membus.snoop_filter.hit_single_snoops            0                       # Number of snoops hitting in the snoop filter with a single holder of the requested data.
system.membus.snoop_filter.hit_multi_snoops            0                       # Number of snoops hitting in the snoop filter with multiple (>1) holders of the requested data.
system.membus.pwrStateResidencyTicks::UNDEFINED 102827503000                       # Cumulative time (in ticks) in various power states
system.membus.trans_dist::ReadResp                876                       # Transaction distribution
system.membus.trans_dist::ReadExReq                88                       # Transaction distribution
system.membus.trans_dist::ReadExResp               88                       # Transaction distribution
system.membus.trans_dist::ReadSharedReq           878                       # Transaction distribution
system.membus.pkt_count_system.l2.mem_side::system.mem_ctrls.port         1930                       # Packet count per connected master and slave (bytes)
system.membus.pkt_count::total                   1930                       # Packet count per connected master and slave (bytes)
system.membus.pkt_size_system.l2.mem_side::system.mem_ctrls.port        61696                       # Cumulative packet size per connected master and slave (bytes)
system.membus.pkt_size::total                   61696                       # Cumulative packet size per connected master and slave (bytes)
system.membus.snoops                                0                       # Total snoops (count)
system.membus.snoopTraffic                          0                       # Total snoop traffic (bytes)
system.membus.snoop_fanout::samples               966                       # Request fanout histogram
system.membus.snoop_fanout::mean                    0                       # Request fanout histogram
system.membus.snoop_fanout::stdev                   0                       # Request fanout histogram
system.membus.snoop_fanout::underflows              0      0.00%      0.00% # Request fanout histogram
system.membus.snoop_fanout::0                     966    100.00%    100.00% # Request fanout histogram
system.membus.snoop_fanout::1                       0      0.00%    100.00% # Request fanout histogram
system.membus.snoop_fanout::overflows               0      0.00%    100.00% # Request fanout histogram
system.membus.snoop_fanout::min_value               0                       # Request fanout histogram
system.membus.snoop_fanout::max_value               0                       # Request fanout histogram
system.membus.snoop_fanout::total                 966                       # Request fanout histogram
system.membus.reqLayer0.occupancy             1273951                       # Layer occupancy (ticks)
system.membus.reqLayer0.utilization               0.0                       # Layer utilization (%)
system.membus.respLayer1.occupancy            5091306                       # Layer occupancy (ticks)
system.membus.respLayer1.utilization              0.0                       # Layer utilization (%)
system.tol2bus.snoop_filter.tot_requests         1033                       # Total number of requests made to the snoop filter.
system.tol2bus.snoop_filter.hit_single_requests           96                       # Number of requests hitting in the snoop filter with a single holder of the requested data.
system.tol2bus.snoop_filter.hit_multi_requests            0                       # Number of requests hitting in the snoop filter with multiple (>1) holders of the requested data.
system.tol2bus.snoop_filter.tot_snoops             22                       # Total number of snoops made to the snoop filter.
system.tol2bus.snoop_filter.hit_single_snoops           22                       # Number of snoops hitting in the snoop filter with a single holder of the requested data.
system.tol2bus.snoop_filter.hit_multi_snoops            0                       # Number of snoops hitting in the snoop filter with multiple (>1) holders of the requested data.
system.tol2bus.pwrStateResidencyTicks::UNDEFINED 102827503000                       # Cumulative time (in ticks) in various power states
system.tol2bus.trans_dist::ReadResp               508                       # Transaction distribution
system.tol2bus.trans_dist::WritebackDirty            9                       # Transaction distribution
system.tol2bus.trans_dist::WritebackClean           74                       # Transaction distribution
system.tol2bus.trans_dist::HardPFReq              489                       # Transaction distribution
system.tol2bus.trans_dist::ReadExReq              440                       # Transaction distribution
system.tol2bus.trans_dist::ReadExResp             440                       # Transaction distribution
system.tol2bus.trans_dist::ReadCleanReq           409                       # Transaction distribution
system.tol2bus.trans_dist::ReadSharedReq          101                       # Transaction distribution
system.tol2bus.pkt_count_system.cpu.icache.mem_side::system.l2.cpu_side          888                       # Packet count per connected master and slave (bytes)
system.tol2bus.pkt_count_system.cpu.dcache.mem_side::system.l2.cpu_side         1093                       # Packet count per connected master and slave (bytes)
system.tol2bus.pkt_count::total                  1981                       # Packet count per connected master and slave (bytes)
system.tol2bus.pkt_size_system.cpu.icache.mem_side::system.l2.cpu_side        30656                       # Cumulative packet size per connected master and slave (bytes)
system.tol2bus.pkt_size_system.cpu.dcache.mem_side::system.l2.cpu_side        35328                       # Cumulative packet size per connected master and slave (bytes)
system.tol2bus.pkt_size::total                  65984                       # Cumulative packet size per connected master and slave (bytes)
system.tol2bus.snoops                             489                       # Total snoops (count)
system.tol2bus.snoopTraffic                         0                       # Total snoop traffic (bytes)
system.tol2bus.snoop_fanout::samples             1439                       # Request fanout histogram
system.tol2bus.snoop_fanout::mean            0.024322                       # Request fanout histogram
system.tol2bus.snoop_fanout::stdev           0.154102                       # Request fanout histogram
system.tol2bus.snoop_fanout::underflows             0      0.00%      0.00% # Request fanout histogram
system.tol2bus.snoop_fanout::0                   1404     97.57%     97.57% # Request fanout histogram
system.tol2bus.snoop_fanout::1                     35      2.43%    100.00% # Request fanout histogram
system.tol2bus.snoop_fanout::2                      0      0.00%    100.00% # Request fanout histogram
system.tol2bus.snoop_fanout::3                      0      0.00%    100.00% # Request fanout histogram
system.tol2bus.snoop_fanout::4                      0      0.00%    100.00% # Request fanout histogram
system.tol2bus.snoop_fanout::overflows              0      0.00%    100.00% # Request fanout histogram
system.tol2bus.snoop_fanout::min_value              0                       # Request fanout histogram
system.tol2bus.snoop_fanout::max_value              1                       # Request fanout histogram
system.tol2bus.snoop_fanout::total               1439                       # Request fanout histogram
system.tol2bus.reqLayer0.occupancy             599500                       # Layer occupancy (ticks)
system.tol2bus.reqLayer0.utilization              0.0                       # Layer utilization (%)
system.tol2bus.respLayer0.occupancy            610500                       # Layer occupancy (ticks)
system.tol2bus.respLayer0.utilization             0.0                       # Layer utilization (%)
system.tol2bus.respLayer1.occupancy            812498                       # Layer occupancy (ticks)
system.tol2bus.respLayer1.utilization             0.0                       # Layer utilization (%)

---------- End Simulation Statistics   ----------
