gem5 Simulator System.  http://gem5.org
gem5 is copyrighted software; use the --copyright option for details.

gem5 compiled Dec  5 2017 00:08:03
gem5 started Dec  5 2017 02:03:14
gem5 executing on phicrow, pid 11840
command line: build/ARM/gem5.fast -d m5out/step8 ./configs/example/se.py --caches --l2cache --cpu-type=O3_ARM_v7a_3 -c ../benchmark/microbench/Step8 -o 4

Global frequency set at 1000000000000 ticks per second
**** REAL SIMULATION ****
Define patterns lengthExiting @ tick 246209957500 because exiting with last active thread context
