
---------- Begin Simulation Statistics ----------
sim_seconds                                  0.099854                       # Number of seconds simulated
sim_ticks                                 99853641500                       # Number of ticks simulated
final_tick                                99853641500                       # Number of ticks from beginning of simulation (restored from checkpoints and never reset)
sim_freq                                 1000000000000                       # Frequency of simulated ticks
host_inst_rate                                 273464                       # Simulator instruction rate (inst/s)
host_op_rate                                   276034                       # Simulator op (including micro ops) rate (op/s)
host_tick_rate                              143776588                       # Simulator tick rate (ticks/s)
host_mem_usage                                 672244                       # Number of bytes of host memory used
host_seconds                                   694.51                       # Real time elapsed on the host
sim_insts                                   189922314                       # Number of instructions simulated
sim_ops                                     191707374                       # Number of ops (including micro ops) simulated
system.voltage_domain.voltage                       1                       # Voltage in Volts
system.clk_domain.clock                          1000                       # Clock period in ticks
system.mem_ctrls.pwrStateResidencyTicks::UNDEFINED  99853641500                       # Cumulative time (in ticks) in various power states
system.mem_ctrls.bytes_read::cpu.inst           25728                       # Number of bytes read from this memory
system.mem_ctrls.bytes_read::cpu.data           11584                       # Number of bytes read from this memory
system.mem_ctrls.bytes_read::l2.prefetcher        24704                       # Number of bytes read from this memory
system.mem_ctrls.bytes_read::total              62016                       # Number of bytes read from this memory
system.mem_ctrls.bytes_inst_read::cpu.inst        25728                       # Number of instructions bytes read from this memory
system.mem_ctrls.bytes_inst_read::total         25728                       # Number of instructions bytes read from this memory
system.mem_ctrls.num_reads::cpu.inst              402                       # Number of read requests responded to by this memory
system.mem_ctrls.num_reads::cpu.data              181                       # Number of read requests responded to by this memory
system.mem_ctrls.num_reads::l2.prefetcher          386                       # Number of read requests responded to by this memory
system.mem_ctrls.num_reads::total                 969                       # Number of read requests responded to by this memory
system.mem_ctrls.bw_read::cpu.inst             257657                       # Total read bandwidth from this memory (bytes/s)
system.mem_ctrls.bw_read::cpu.data             116010                       # Total read bandwidth from this memory (bytes/s)
system.mem_ctrls.bw_read::l2.prefetcher        247402                       # Total read bandwidth from this memory (bytes/s)
system.mem_ctrls.bw_read::total                621069                       # Total read bandwidth from this memory (bytes/s)
system.mem_ctrls.bw_inst_read::cpu.inst        257657                       # Instruction read bandwidth from this memory (bytes/s)
system.mem_ctrls.bw_inst_read::total           257657                       # Instruction read bandwidth from this memory (bytes/s)
system.mem_ctrls.bw_total::cpu.inst            257657                       # Total bandwidth to/from this memory (bytes/s)
system.mem_ctrls.bw_total::cpu.data            116010                       # Total bandwidth to/from this memory (bytes/s)
system.mem_ctrls.bw_total::l2.prefetcher       247402                       # Total bandwidth to/from this memory (bytes/s)
system.mem_ctrls.bw_total::total               621069                       # Total bandwidth to/from this memory (bytes/s)
system.mem_ctrls.readReqs                         970                       # Number of read requests accepted
system.mem_ctrls.writeReqs                          0                       # Number of write requests accepted
system.mem_ctrls.readBursts                       970                       # Number of DRAM read bursts, including those serviced by the write queue
system.mem_ctrls.writeBursts                        0                       # Number of DRAM write bursts, including those merged in the write queue
system.mem_ctrls.bytesReadDRAM                  62080                       # Total number of bytes read from DRAM
system.mem_ctrls.bytesReadWrQ                       0                       # Total number of bytes read from write queue
system.mem_ctrls.bytesWritten                       0                       # Total number of bytes written to DRAM
system.mem_ctrls.bytesReadSys                   62080                       # Total read bytes from the system interface side
system.mem_ctrls.bytesWrittenSys                    0                       # Total written bytes from the system interface side
system.mem_ctrls.servicedByWrQ                      0                       # Number of DRAM read bursts serviced by the write queue
system.mem_ctrls.mergedWrBursts                     0                       # Number of DRAM write bursts merged with an existing one
system.mem_ctrls.neitherReadNorWriteReqs            0                       # Number of requests that are neither read nor write
system.mem_ctrls.perBankRdBursts::0               101                       # Per bank write bursts
system.mem_ctrls.perBankRdBursts::1                 4                       # Per bank write bursts
system.mem_ctrls.perBankRdBursts::2                 9                       # Per bank write bursts
system.mem_ctrls.perBankRdBursts::3                73                       # Per bank write bursts
system.mem_ctrls.perBankRdBursts::4                21                       # Per bank write bursts
system.mem_ctrls.perBankRdBursts::5                25                       # Per bank write bursts
system.mem_ctrls.perBankRdBursts::6               142                       # Per bank write bursts
system.mem_ctrls.perBankRdBursts::7               166                       # Per bank write bursts
system.mem_ctrls.perBankRdBursts::8                98                       # Per bank write bursts
system.mem_ctrls.perBankRdBursts::9                24                       # Per bank write bursts
system.mem_ctrls.perBankRdBursts::10               19                       # Per bank write bursts
system.mem_ctrls.perBankRdBursts::11               12                       # Per bank write bursts
system.mem_ctrls.perBankRdBursts::12              109                       # Per bank write bursts
system.mem_ctrls.perBankRdBursts::13               23                       # Per bank write bursts
system.mem_ctrls.perBankRdBursts::14               54                       # Per bank write bursts
system.mem_ctrls.perBankRdBursts::15               90                       # Per bank write bursts
system.mem_ctrls.perBankWrBursts::0                 0                       # Per bank write bursts
system.mem_ctrls.perBankWrBursts::1                 0                       # Per bank write bursts
system.mem_ctrls.perBankWrBursts::2                 0                       # Per bank write bursts
system.mem_ctrls.perBankWrBursts::3                 0                       # Per bank write bursts
system.mem_ctrls.perBankWrBursts::4                 0                       # Per bank write bursts
system.mem_ctrls.perBankWrBursts::5                 0                       # Per bank write bursts
system.mem_ctrls.perBankWrBursts::6                 0                       # Per bank write bursts
system.mem_ctrls.perBankWrBursts::7                 0                       # Per bank write bursts
system.mem_ctrls.perBankWrBursts::8                 0                       # Per bank write bursts
system.mem_ctrls.perBankWrBursts::9                 0                       # Per bank write bursts
system.mem_ctrls.perBankWrBursts::10                0                       # Per bank write bursts
system.mem_ctrls.perBankWrBursts::11                0                       # Per bank write bursts
system.mem_ctrls.perBankWrBursts::12                0                       # Per bank write bursts
system.mem_ctrls.perBankWrBursts::13                0                       # Per bank write bursts
system.mem_ctrls.perBankWrBursts::14                0                       # Per bank write bursts
system.mem_ctrls.perBankWrBursts::15                0                       # Per bank write bursts
system.mem_ctrls.numRdRetry                         0                       # Number of times read queue was full causing retry
system.mem_ctrls.numWrRetry                         0                       # Number of times write queue was full causing retry
system.mem_ctrls.totGap                   99853632500                       # Total gap between requests
system.mem_ctrls.readPktSize::0                     0                       # Read request sizes (log2)
system.mem_ctrls.readPktSize::1                     0                       # Read request sizes (log2)
system.mem_ctrls.readPktSize::2                     0                       # Read request sizes (log2)
system.mem_ctrls.readPktSize::3                     0                       # Read request sizes (log2)
system.mem_ctrls.readPktSize::4                     0                       # Read request sizes (log2)
system.mem_ctrls.readPktSize::5                     0                       # Read request sizes (log2)
system.mem_ctrls.readPktSize::6                   970                       # Read request sizes (log2)
system.mem_ctrls.writePktSize::0                    0                       # Write request sizes (log2)
system.mem_ctrls.writePktSize::1                    0                       # Write request sizes (log2)
system.mem_ctrls.writePktSize::2                    0                       # Write request sizes (log2)
system.mem_ctrls.writePktSize::3                    0                       # Write request sizes (log2)
system.mem_ctrls.writePktSize::4                    0                       # Write request sizes (log2)
system.mem_ctrls.writePktSize::5                    0                       # Write request sizes (log2)
system.mem_ctrls.writePktSize::6                    0                       # Write request sizes (log2)
system.mem_ctrls.rdQLenPdf::0                     620                       # What read queue length does an incoming req see
system.mem_ctrls.rdQLenPdf::1                     189                       # What read queue length does an incoming req see
system.mem_ctrls.rdQLenPdf::2                      69                       # What read queue length does an incoming req see
system.mem_ctrls.rdQLenPdf::3                      26                       # What read queue length does an incoming req see
system.mem_ctrls.rdQLenPdf::4                      18                       # What read queue length does an incoming req see
system.mem_ctrls.rdQLenPdf::5                      12                       # What read queue length does an incoming req see
system.mem_ctrls.rdQLenPdf::6                      10                       # What read queue length does an incoming req see
system.mem_ctrls.rdQLenPdf::7                      10                       # What read queue length does an incoming req see
system.mem_ctrls.rdQLenPdf::8                       9                       # What read queue length does an incoming req see
system.mem_ctrls.rdQLenPdf::9                       2                       # What read queue length does an incoming req see
system.mem_ctrls.rdQLenPdf::10                      3                       # What read queue length does an incoming req see
system.mem_ctrls.rdQLenPdf::11                      1                       # What read queue length does an incoming req see
system.mem_ctrls.rdQLenPdf::12                      1                       # What read queue length does an incoming req see
system.mem_ctrls.rdQLenPdf::13                      0                       # What read queue length does an incoming req see
system.mem_ctrls.rdQLenPdf::14                      0                       # What read queue length does an incoming req see
system.mem_ctrls.rdQLenPdf::15                      0                       # What read queue length does an incoming req see
system.mem_ctrls.rdQLenPdf::16                      0                       # What read queue length does an incoming req see
system.mem_ctrls.rdQLenPdf::17                      0                       # What read queue length does an incoming req see
system.mem_ctrls.rdQLenPdf::18                      0                       # What read queue length does an incoming req see
system.mem_ctrls.rdQLenPdf::19                      0                       # What read queue length does an incoming req see
system.mem_ctrls.rdQLenPdf::20                      0                       # What read queue length does an incoming req see
system.mem_ctrls.rdQLenPdf::21                      0                       # What read queue length does an incoming req see
system.mem_ctrls.rdQLenPdf::22                      0                       # What read queue length does an incoming req see
system.mem_ctrls.rdQLenPdf::23                      0                       # What read queue length does an incoming req see
system.mem_ctrls.rdQLenPdf::24                      0                       # What read queue length does an incoming req see
system.mem_ctrls.rdQLenPdf::25                      0                       # What read queue length does an incoming req see
system.mem_ctrls.rdQLenPdf::26                      0                       # What read queue length does an incoming req see
system.mem_ctrls.rdQLenPdf::27                      0                       # What read queue length does an incoming req see
system.mem_ctrls.rdQLenPdf::28                      0                       # What read queue length does an incoming req see
system.mem_ctrls.rdQLenPdf::29                      0                       # What read queue length does an incoming req see
system.mem_ctrls.rdQLenPdf::30                      0                       # What read queue length does an incoming req see
system.mem_ctrls.rdQLenPdf::31                      0                       # What read queue length does an incoming req see
system.mem_ctrls.wrQLenPdf::0                       0                       # What write queue length does an incoming req see
system.mem_ctrls.wrQLenPdf::1                       0                       # What write queue length does an incoming req see
system.mem_ctrls.wrQLenPdf::2                       0                       # What write queue length does an incoming req see
system.mem_ctrls.wrQLenPdf::3                       0                       # What write queue length does an incoming req see
system.mem_ctrls.wrQLenPdf::4                       0                       # What write queue length does an incoming req see
system.mem_ctrls.wrQLenPdf::5                       0                       # What write queue length does an incoming req see
system.mem_ctrls.wrQLenPdf::6                       0                       # What write queue length does an incoming req see
system.mem_ctrls.wrQLenPdf::7                       0                       # What write queue length does an incoming req see
system.mem_ctrls.wrQLenPdf::8                       0                       # What write queue length does an incoming req see
system.mem_ctrls.wrQLenPdf::9                       0                       # What write queue length does an incoming req see
system.mem_ctrls.wrQLenPdf::10                      0                       # What write queue length does an incoming req see
system.mem_ctrls.wrQLenPdf::11                      0                       # What write queue length does an incoming req see
system.mem_ctrls.wrQLenPdf::12                      0                       # What write queue length does an incoming req see
system.mem_ctrls.wrQLenPdf::13                      0                       # What write queue length does an incoming req see
system.mem_ctrls.wrQLenPdf::14                      0                       # What write queue length does an incoming req see
system.mem_ctrls.wrQLenPdf::15                      0                       # What write queue length does an incoming req see
system.mem_ctrls.wrQLenPdf::16                      0                       # What write queue length does an incoming req see
system.mem_ctrls.wrQLenPdf::17                      0                       # What write queue length does an incoming req see
system.mem_ctrls.wrQLenPdf::18                      0                       # What write queue length does an incoming req see
system.mem_ctrls.wrQLenPdf::19                      0                       # What write queue length does an incoming req see
system.mem_ctrls.wrQLenPdf::20                      0                       # What write queue length does an incoming req see
system.mem_ctrls.wrQLenPdf::21                      0                       # What write queue length does an incoming req see
system.mem_ctrls.wrQLenPdf::22                      0                       # What write queue length does an incoming req see
system.mem_ctrls.wrQLenPdf::23                      0                       # What write queue length does an incoming req see
system.mem_ctrls.wrQLenPdf::24                      0                       # What write queue length does an incoming req see
system.mem_ctrls.wrQLenPdf::25                      0                       # What write queue length does an incoming req see
system.mem_ctrls.wrQLenPdf::26                      0                       # What write queue length does an incoming req see
system.mem_ctrls.wrQLenPdf::27                      0                       # What write queue length does an incoming req see
system.mem_ctrls.wrQLenPdf::28                      0                       # What write queue length does an incoming req see
system.mem_ctrls.wrQLenPdf::29                      0                       # What write queue length does an incoming req see
system.mem_ctrls.wrQLenPdf::30                      0                       # What write queue length does an incoming req see
system.mem_ctrls.wrQLenPdf::31                      0                       # What write queue length does an incoming req see
system.mem_ctrls.wrQLenPdf::32                      0                       # What write queue length does an incoming req see
system.mem_ctrls.wrQLenPdf::33                      0                       # What write queue length does an incoming req see
system.mem_ctrls.wrQLenPdf::34                      0                       # What write queue length does an incoming req see
system.mem_ctrls.wrQLenPdf::35                      0                       # What write queue length does an incoming req see
system.mem_ctrls.wrQLenPdf::36                      0                       # What write queue length does an incoming req see
system.mem_ctrls.wrQLenPdf::37                      0                       # What write queue length does an incoming req see
system.mem_ctrls.wrQLenPdf::38                      0                       # What write queue length does an incoming req see
system.mem_ctrls.wrQLenPdf::39                      0                       # What write queue length does an incoming req see
system.mem_ctrls.wrQLenPdf::40                      0                       # What write queue length does an incoming req see
system.mem_ctrls.wrQLenPdf::41                      0                       # What write queue length does an incoming req see
system.mem_ctrls.wrQLenPdf::42                      0                       # What write queue length does an incoming req see
system.mem_ctrls.wrQLenPdf::43                      0                       # What write queue length does an incoming req see
system.mem_ctrls.wrQLenPdf::44                      0                       # What write queue length does an incoming req see
system.mem_ctrls.wrQLenPdf::45                      0                       # What write queue length does an incoming req see
system.mem_ctrls.wrQLenPdf::46                      0                       # What write queue length does an incoming req see
system.mem_ctrls.wrQLenPdf::47                      0                       # What write queue length does an incoming req see
system.mem_ctrls.wrQLenPdf::48                      0                       # What write queue length does an incoming req see
system.mem_ctrls.wrQLenPdf::49                      0                       # What write queue length does an incoming req see
system.mem_ctrls.wrQLenPdf::50                      0                       # What write queue length does an incoming req see
system.mem_ctrls.wrQLenPdf::51                      0                       # What write queue length does an incoming req see
system.mem_ctrls.wrQLenPdf::52                      0                       # What write queue length does an incoming req see
system.mem_ctrls.wrQLenPdf::53                      0                       # What write queue length does an incoming req see
system.mem_ctrls.wrQLenPdf::54                      0                       # What write queue length does an incoming req see
system.mem_ctrls.wrQLenPdf::55                      0                       # What write queue length does an incoming req see
system.mem_ctrls.wrQLenPdf::56                      0                       # What write queue length does an incoming req see
system.mem_ctrls.wrQLenPdf::57                      0                       # What write queue length does an incoming req see
system.mem_ctrls.wrQLenPdf::58                      0                       # What write queue length does an incoming req see
system.mem_ctrls.wrQLenPdf::59                      0                       # What write queue length does an incoming req see
system.mem_ctrls.wrQLenPdf::60                      0                       # What write queue length does an incoming req see
system.mem_ctrls.wrQLenPdf::61                      0                       # What write queue length does an incoming req see
system.mem_ctrls.wrQLenPdf::62                      0                       # What write queue length does an incoming req see
system.mem_ctrls.wrQLenPdf::63                      0                       # What write queue length does an incoming req see
system.mem_ctrls.bytesPerActivate::samples          176                       # Bytes accessed per row activation
system.mem_ctrls.bytesPerActivate::mean    335.272727                       # Bytes accessed per row activation
system.mem_ctrls.bytesPerActivate::gmean   197.733174                       # Bytes accessed per row activation
system.mem_ctrls.bytesPerActivate::stdev   339.552671                       # Bytes accessed per row activation
system.mem_ctrls.bytesPerActivate::0-127           62     35.23%     35.23% # Bytes accessed per row activation
system.mem_ctrls.bytesPerActivate::128-255           36     20.45%     55.68% # Bytes accessed per row activation
system.mem_ctrls.bytesPerActivate::256-383           24     13.64%     69.32% # Bytes accessed per row activation
system.mem_ctrls.bytesPerActivate::384-511            7      3.98%     73.30% # Bytes accessed per row activation
system.mem_ctrls.bytesPerActivate::512-639            7      3.98%     77.27% # Bytes accessed per row activation
system.mem_ctrls.bytesPerActivate::640-767            7      3.98%     81.25% # Bytes accessed per row activation
system.mem_ctrls.bytesPerActivate::768-895            8      4.55%     85.80% # Bytes accessed per row activation
system.mem_ctrls.bytesPerActivate::896-1023            3      1.70%     87.50% # Bytes accessed per row activation
system.mem_ctrls.bytesPerActivate::1024-1151           22     12.50%    100.00% # Bytes accessed per row activation
system.mem_ctrls.bytesPerActivate::total          176                       # Bytes accessed per row activation
system.mem_ctrls.totQLat                     46736965                       # Total ticks spent queuing
system.mem_ctrls.totMemAccLat                64924465                       # Total ticks spent from burst creation until serviced by the DRAM
system.mem_ctrls.totBusLat                    4850000                       # Total ticks spent in databus transfers
system.mem_ctrls.avgQLat                     48182.44                       # Average queueing delay per DRAM burst
system.mem_ctrls.avgBusLat                    5000.00                       # Average bus latency per DRAM burst
system.mem_ctrls.avgMemAccLat                66932.44                       # Average memory access latency per DRAM burst
system.mem_ctrls.avgRdBW                         0.62                       # Average DRAM read bandwidth in MiByte/s
system.mem_ctrls.avgWrBW                         0.00                       # Average achieved write bandwidth in MiByte/s
system.mem_ctrls.avgRdBWSys                      0.62                       # Average system read bandwidth in MiByte/s
system.mem_ctrls.avgWrBWSys                      0.00                       # Average system write bandwidth in MiByte/s
system.mem_ctrls.peakBW                      12800.00                       # Theoretical peak bandwidth in MiByte/s
system.mem_ctrls.busUtil                         0.00                       # Data bus utilization in percentage
system.mem_ctrls.busUtilRead                     0.00                       # Data bus utilization in percentage for reads
system.mem_ctrls.busUtilWrite                    0.00                       # Data bus utilization in percentage for writes
system.mem_ctrls.avgRdQLen                       2.24                       # Average read queue length when enqueuing
system.mem_ctrls.avgWrQLen                       0.00                       # Average write queue length when enqueuing
system.mem_ctrls.readRowHits                      784                       # Number of row buffer hits during reads
system.mem_ctrls.writeRowHits                       0                       # Number of row buffer hits during writes
system.mem_ctrls.readRowHitRate                 80.82                       # Row buffer hit rate for reads
system.mem_ctrls.writeRowHitRate                  nan                       # Row buffer hit rate for writes
system.mem_ctrls.avgGap                  102941889.18                       # Average gap between requests
system.mem_ctrls.pageHitRate                    80.82                       # Row buffer hit rate, read and write combined
system.mem_ctrls_0.actEnergy                   549780                       # Energy for activate commands per rank (pJ)
system.mem_ctrls_0.preEnergy                   273240                       # Energy for precharge commands per rank (pJ)
system.mem_ctrls_0.readEnergy                 3862740                       # Energy for read commands per rank (pJ)
system.mem_ctrls_0.writeEnergy                      0                       # Energy for write commands per rank (pJ)
system.mem_ctrls_0.refreshEnergy         15366000.000000                       # Energy for refresh commands per rank (pJ)
system.mem_ctrls_0.actBackEnergy              9075540                       # Energy for active background per rank (pJ)
system.mem_ctrls_0.preBackEnergy               854400                       # Energy for precharge background per rank (pJ)
system.mem_ctrls_0.actPowerDownEnergy        45359460                       # Energy for active power-down per rank (pJ)
system.mem_ctrls_0.prePowerDownEnergy        15752640                       # Energy for precharge power-down per rank (pJ)
system.mem_ctrls_0.selfRefreshEnergy      23928606000                       # Energy for self refresh per rank (pJ)
system.mem_ctrls_0.totalEnergy            24019699800                       # Total energy per rank (pJ)
system.mem_ctrls_0.averagePower            240.549060                       # Core power per rank (mW)
system.mem_ctrls_0.totalIdleTime          99831533750                       # Total Idle time Per DRAM Rank
system.mem_ctrls_0.memoryStateTime::IDLE      1453000                       # Time in different power states
system.mem_ctrls_0.memoryStateTime::REF       6530000                       # Time in different power states
system.mem_ctrls_0.memoryStateTime::SREF  99691020500                       # Time in different power states
system.mem_ctrls_0.memoryStateTime::PRE_PDN     41025500                       # Time in different power states
system.mem_ctrls_0.memoryStateTime::ACT      14099000                       # Time in different power states
system.mem_ctrls_0.memoryStateTime::ACT_PDN     99513500                       # Time in different power states
system.mem_ctrls_1.actEnergy                   778260                       # Energy for activate commands per rank (pJ)
system.mem_ctrls_1.preEnergy                   394680                       # Energy for precharge commands per rank (pJ)
system.mem_ctrls_1.readEnergy                 3055920                       # Energy for read commands per rank (pJ)
system.mem_ctrls_1.writeEnergy                      0                       # Energy for write commands per rank (pJ)
system.mem_ctrls_1.refreshEnergy         32575920.000000                       # Energy for refresh commands per rank (pJ)
system.mem_ctrls_1.actBackEnergy             10715430                       # Energy for active background per rank (pJ)
system.mem_ctrls_1.preBackEnergy              2160480                       # Energy for precharge background per rank (pJ)
system.mem_ctrls_1.actPowerDownEnergy        67586040                       # Energy for active power-down per rank (pJ)
system.mem_ctrls_1.prePowerDownEnergy        47135520                       # Energy for precharge power-down per rank (pJ)
system.mem_ctrls_1.selfRefreshEnergy      23901688740                       # Energy for self refresh per rank (pJ)
system.mem_ctrls_1.totalEnergy            24066090990                       # Total energy per rank (pJ)
system.mem_ctrls_1.averagePower            241.013651                       # Core power per rank (mW)
system.mem_ctrls_1.totalIdleTime          99824519750                       # Total Idle time Per DRAM Rank
system.mem_ctrls_1.memoryStateTime::IDLE      4459000                       # Time in different power states
system.mem_ctrls_1.memoryStateTime::REF      13876000                       # Time in different power states
system.mem_ctrls_1.memoryStateTime::SREF  99553549250                       # Time in different power states
system.mem_ctrls_1.memoryStateTime::PRE_PDN    122745257                       # Time in different power states
system.mem_ctrls_1.memoryStateTime::ACT      10786750                       # Time in different power states
system.mem_ctrls_1.memoryStateTime::ACT_PDN    148225243                       # Time in different power states
system.pwrStateResidencyTicks::UNDEFINED  99853641500                       # Cumulative time (in ticks) in various power states
system.cpu.branchPred.lookups                34187766                       # Number of BP lookups
system.cpu.branchPred.condPredicted          26693694                       # Number of conditional branches predicted
system.cpu.branchPred.condIncorrect           4658480                       # Number of conditional branches incorrect
system.cpu.branchPred.BTBLookups             23778503                       # Number of BTB lookups
system.cpu.branchPred.BTBHits                23771916                       # Number of BTB hits
system.cpu.branchPred.BTBCorrect                    0                       # Number of correct BTB predictions (this stat may not work properly.
system.cpu.branchPred.BTBHitPct             99.972299                       # BTB Hit Percentage
system.cpu.branchPred.usedRAS                 2227759                       # Number of times the RAS was used to get a target.
system.cpu.branchPred.RASInCorrect               2253                       # Number of incorrect RAS predictions.
system.cpu.branchPred.indirectLookups             552                       # Number of indirect predictor lookups.
system.cpu.branchPred.indirectHits                307                       # Number of indirect target hits.
system.cpu.branchPred.indirectMisses              245                       # Number of indirect misses.
system.cpu.branchPredindirectMispredicted          142                       # Number of mispredicted indirect branches.
system.cpu.branchPred.allExpertsWrong         1317545                       # Number of times all experts voted incorrectly.
system.cpu.branchPred.allExpertsRight         8660082                       # Number of times all experts voted correctly.
system.cpu.branchPred.lowWeightExpertsWon       397259                       # Number of times where lower weighted experts overrode the highest weight expert.
system.cpu.branchPred.oneCorrectExpert        2303832                       # Number of times when there is a single correct expert on a mispredict.
system.cpu.branchPred.twoCorrectExpert         955652                       # Number of times when there are two correct experts on a mispredict.
system.cpu.branchPred.threeCorrectExpert            0                       # Number of times when there are three correct experts on a mispredict.
system.cpu_voltage_domain.voltage                   1                       # Voltage in Volts
system.cpu_clk_domain.clock                       500                       # Clock period in ticks
system.cpu.dstage2_mmu.stage2_tlb.walker.pwrStateResidencyTicks::UNDEFINED  99853641500                       # Cumulative time (in ticks) in various power states
system.cpu.dstage2_mmu.stage2_tlb.walker.walks            0                       # Table walker walks requested
system.cpu.dstage2_mmu.stage2_tlb.walker.walkRequestOrigin_Requested::Data            0                       # Table walker requests started/completed, data/inst
system.cpu.dstage2_mmu.stage2_tlb.walker.walkRequestOrigin_Requested::Inst            0                       # Table walker requests started/completed, data/inst
system.cpu.dstage2_mmu.stage2_tlb.walker.walkRequestOrigin_Requested::total            0                       # Table walker requests started/completed, data/inst
system.cpu.dstage2_mmu.stage2_tlb.walker.walkRequestOrigin_Completed::Data            0                       # Table walker requests started/completed, data/inst
system.cpu.dstage2_mmu.stage2_tlb.walker.walkRequestOrigin_Completed::Inst            0                       # Table walker requests started/completed, data/inst
system.cpu.dstage2_mmu.stage2_tlb.walker.walkRequestOrigin_Completed::total            0                       # Table walker requests started/completed, data/inst
system.cpu.dstage2_mmu.stage2_tlb.walker.walkRequestOrigin::total            0                       # Table walker requests started/completed, data/inst
system.cpu.dstage2_mmu.stage2_tlb.inst_hits            0                       # ITB inst hits
system.cpu.dstage2_mmu.stage2_tlb.inst_misses            0                       # ITB inst misses
system.cpu.dstage2_mmu.stage2_tlb.read_hits            0                       # DTB read hits
system.cpu.dstage2_mmu.stage2_tlb.read_misses            0                       # DTB read misses
system.cpu.dstage2_mmu.stage2_tlb.write_hits            0                       # DTB write hits
system.cpu.dstage2_mmu.stage2_tlb.write_misses            0                       # DTB write misses
system.cpu.dstage2_mmu.stage2_tlb.flush_tlb            0                       # Number of times complete TLB was flushed
system.cpu.dstage2_mmu.stage2_tlb.flush_tlb_mva            0                       # Number of times TLB was flushed by MVA
system.cpu.dstage2_mmu.stage2_tlb.flush_tlb_mva_asid            0                       # Number of times TLB was flushed by MVA & ASID
system.cpu.dstage2_mmu.stage2_tlb.flush_tlb_asid            0                       # Number of times TLB was flushed by ASID
system.cpu.dstage2_mmu.stage2_tlb.flush_entries            0                       # Number of entries that have been flushed from TLB
system.cpu.dstage2_mmu.stage2_tlb.align_faults            0                       # Number of TLB faults due to alignment restrictions
system.cpu.dstage2_mmu.stage2_tlb.prefetch_faults            0                       # Number of TLB faults due to prefetch
system.cpu.dstage2_mmu.stage2_tlb.domain_faults            0                       # Number of TLB faults due to domain restrictions
system.cpu.dstage2_mmu.stage2_tlb.perms_faults            0                       # Number of TLB faults due to permissions restrictions
system.cpu.dstage2_mmu.stage2_tlb.read_accesses            0                       # DTB read accesses
system.cpu.dstage2_mmu.stage2_tlb.write_accesses            0                       # DTB write accesses
system.cpu.dstage2_mmu.stage2_tlb.inst_accesses            0                       # ITB inst accesses
system.cpu.dstage2_mmu.stage2_tlb.hits              0                       # DTB hits
system.cpu.dstage2_mmu.stage2_tlb.misses            0                       # DTB misses
system.cpu.dstage2_mmu.stage2_tlb.accesses            0                       # DTB accesses
system.cpu.dtb.walker.pwrStateResidencyTicks::UNDEFINED  99853641500                       # Cumulative time (in ticks) in various power states
system.cpu.dtb.walker.walks                         0                       # Table walker walks requested
system.cpu.dtb.walker.walkRequestOrigin_Requested::Data            0                       # Table walker requests started/completed, data/inst
system.cpu.dtb.walker.walkRequestOrigin_Requested::Inst            0                       # Table walker requests started/completed, data/inst
system.cpu.dtb.walker.walkRequestOrigin_Requested::total            0                       # Table walker requests started/completed, data/inst
system.cpu.dtb.walker.walkRequestOrigin_Completed::Data            0                       # Table walker requests started/completed, data/inst
system.cpu.dtb.walker.walkRequestOrigin_Completed::Inst            0                       # Table walker requests started/completed, data/inst
system.cpu.dtb.walker.walkRequestOrigin_Completed::total            0                       # Table walker requests started/completed, data/inst
system.cpu.dtb.walker.walkRequestOrigin::total            0                       # Table walker requests started/completed, data/inst
system.cpu.dtb.inst_hits                            0                       # ITB inst hits
system.cpu.dtb.inst_misses                          0                       # ITB inst misses
system.cpu.dtb.read_hits                            0                       # DTB read hits
system.cpu.dtb.read_misses                          0                       # DTB read misses
system.cpu.dtb.write_hits                           0                       # DTB write hits
system.cpu.dtb.write_misses                         0                       # DTB write misses
system.cpu.dtb.flush_tlb                            0                       # Number of times complete TLB was flushed
system.cpu.dtb.flush_tlb_mva                        0                       # Number of times TLB was flushed by MVA
system.cpu.dtb.flush_tlb_mva_asid                   0                       # Number of times TLB was flushed by MVA & ASID
system.cpu.dtb.flush_tlb_asid                       0                       # Number of times TLB was flushed by ASID
system.cpu.dtb.flush_entries                        0                       # Number of entries that have been flushed from TLB
system.cpu.dtb.align_faults                         0                       # Number of TLB faults due to alignment restrictions
system.cpu.dtb.prefetch_faults                      0                       # Number of TLB faults due to prefetch
system.cpu.dtb.domain_faults                        0                       # Number of TLB faults due to domain restrictions
system.cpu.dtb.perms_faults                         0                       # Number of TLB faults due to permissions restrictions
system.cpu.dtb.read_accesses                        0                       # DTB read accesses
system.cpu.dtb.write_accesses                       0                       # DTB write accesses
system.cpu.dtb.inst_accesses                        0                       # ITB inst accesses
system.cpu.dtb.hits                                 0                       # DTB hits
system.cpu.dtb.misses                               0                       # DTB misses
system.cpu.dtb.accesses                             0                       # DTB accesses
system.cpu.istage2_mmu.stage2_tlb.walker.pwrStateResidencyTicks::UNDEFINED  99853641500                       # Cumulative time (in ticks) in various power states
system.cpu.istage2_mmu.stage2_tlb.walker.walks            0                       # Table walker walks requested
system.cpu.istage2_mmu.stage2_tlb.walker.walkRequestOrigin_Requested::Data            0                       # Table walker requests started/completed, data/inst
system.cpu.istage2_mmu.stage2_tlb.walker.walkRequestOrigin_Requested::Inst            0                       # Table walker requests started/completed, data/inst
system.cpu.istage2_mmu.stage2_tlb.walker.walkRequestOrigin_Requested::total            0                       # Table walker requests started/completed, data/inst
system.cpu.istage2_mmu.stage2_tlb.walker.walkRequestOrigin_Completed::Data            0                       # Table walker requests started/completed, data/inst
system.cpu.istage2_mmu.stage2_tlb.walker.walkRequestOrigin_Completed::Inst            0                       # Table walker requests started/completed, data/inst
system.cpu.istage2_mmu.stage2_tlb.walker.walkRequestOrigin_Completed::total            0                       # Table walker requests started/completed, data/inst
system.cpu.istage2_mmu.stage2_tlb.walker.walkRequestOrigin::total            0                       # Table walker requests started/completed, data/inst
system.cpu.istage2_mmu.stage2_tlb.inst_hits            0                       # ITB inst hits
system.cpu.istage2_mmu.stage2_tlb.inst_misses            0                       # ITB inst misses
system.cpu.istage2_mmu.stage2_tlb.read_hits            0                       # DTB read hits
system.cpu.istage2_mmu.stage2_tlb.read_misses            0                       # DTB read misses
system.cpu.istage2_mmu.stage2_tlb.write_hits            0                       # DTB write hits
system.cpu.istage2_mmu.stage2_tlb.write_misses            0                       # DTB write misses
system.cpu.istage2_mmu.stage2_tlb.flush_tlb            0                       # Number of times complete TLB was flushed
system.cpu.istage2_mmu.stage2_tlb.flush_tlb_mva            0                       # Number of times TLB was flushed by MVA
system.cpu.istage2_mmu.stage2_tlb.flush_tlb_mva_asid            0                       # Number of times TLB was flushed by MVA & ASID
system.cpu.istage2_mmu.stage2_tlb.flush_tlb_asid            0                       # Number of times TLB was flushed by ASID
system.cpu.istage2_mmu.stage2_tlb.flush_entries            0                       # Number of entries that have been flushed from TLB
system.cpu.istage2_mmu.stage2_tlb.align_faults            0                       # Number of TLB faults due to alignment restrictions
system.cpu.istage2_mmu.stage2_tlb.prefetch_faults            0                       # Number of TLB faults due to prefetch
system.cpu.istage2_mmu.stage2_tlb.domain_faults            0                       # Number of TLB faults due to domain restrictions
system.cpu.istage2_mmu.stage2_tlb.perms_faults            0                       # Number of TLB faults due to permissions restrictions
system.cpu.istage2_mmu.stage2_tlb.read_accesses            0                       # DTB read accesses
system.cpu.istage2_mmu.stage2_tlb.write_accesses            0                       # DTB write accesses
system.cpu.istage2_mmu.stage2_tlb.inst_accesses            0                       # ITB inst accesses
system.cpu.istage2_mmu.stage2_tlb.hits              0                       # DTB hits
system.cpu.istage2_mmu.stage2_tlb.misses            0                       # DTB misses
system.cpu.istage2_mmu.stage2_tlb.accesses            0                       # DTB accesses
system.cpu.itb.walker.pwrStateResidencyTicks::UNDEFINED  99853641500                       # Cumulative time (in ticks) in various power states
system.cpu.itb.walker.walks                         0                       # Table walker walks requested
system.cpu.itb.walker.walkRequestOrigin_Requested::Data            0                       # Table walker requests started/completed, data/inst
system.cpu.itb.walker.walkRequestOrigin_Requested::Inst            0                       # Table walker requests started/completed, data/inst
system.cpu.itb.walker.walkRequestOrigin_Requested::total            0                       # Table walker requests started/completed, data/inst
system.cpu.itb.walker.walkRequestOrigin_Completed::Data            0                       # Table walker requests started/completed, data/inst
system.cpu.itb.walker.walkRequestOrigin_Completed::Inst            0                       # Table walker requests started/completed, data/inst
system.cpu.itb.walker.walkRequestOrigin_Completed::total            0                       # Table walker requests started/completed, data/inst
system.cpu.itb.walker.walkRequestOrigin::total            0                       # Table walker requests started/completed, data/inst
system.cpu.itb.inst_hits                            0                       # ITB inst hits
system.cpu.itb.inst_misses                          0                       # ITB inst misses
system.cpu.itb.read_hits                            0                       # DTB read hits
system.cpu.itb.read_misses                          0                       # DTB read misses
system.cpu.itb.write_hits                           0                       # DTB write hits
system.cpu.itb.write_misses                         0                       # DTB write misses
system.cpu.itb.flush_tlb                            0                       # Number of times complete TLB was flushed
system.cpu.itb.flush_tlb_mva                        0                       # Number of times TLB was flushed by MVA
system.cpu.itb.flush_tlb_mva_asid                   0                       # Number of times TLB was flushed by MVA & ASID
system.cpu.itb.flush_tlb_asid                       0                       # Number of times TLB was flushed by ASID
system.cpu.itb.flush_entries                        0                       # Number of entries that have been flushed from TLB
system.cpu.itb.align_faults                         0                       # Number of TLB faults due to alignment restrictions
system.cpu.itb.prefetch_faults                      0                       # Number of TLB faults due to prefetch
system.cpu.itb.domain_faults                        0                       # Number of TLB faults due to domain restrictions
system.cpu.itb.perms_faults                         0                       # Number of TLB faults due to permissions restrictions
system.cpu.itb.read_accesses                        0                       # DTB read accesses
system.cpu.itb.write_accesses                       0                       # DTB write accesses
system.cpu.itb.inst_accesses                        0                       # ITB inst accesses
system.cpu.itb.hits                                 0                       # DTB hits
system.cpu.itb.misses                               0                       # DTB misses
system.cpu.itb.accesses                             0                       # DTB accesses
system.cpu.workload.numSyscalls                    11                       # Number of system calls
system.cpu.pwrStateResidencyTicks::ON     99853641500                       # Cumulative time (in ticks) in various power states
system.cpu.numCycles                        199707284                       # number of cpu cycles simulated
system.cpu.numWorkItemsStarted                      0                       # number of work items this cpu started
system.cpu.numWorkItemsCompleted                    0                       # number of work items this cpu completed
system.cpu.fetch.icacheStallCycles            4115532                       # Number of cycles fetch is stalled on an Icache miss
system.cpu.fetch.Insts                      365286024                       # Number of instructions fetch has processed
system.cpu.fetch.Branches                    34187766                       # Number of branches that fetch encountered
system.cpu.fetch.predictedBranches           25999982                       # Number of branches that fetch has predicted taken
system.cpu.fetch.Cycles                     190889241                       # Number of cycles fetch has run and was not squashing or blocked
system.cpu.fetch.SquashCycles                 9324416                       # Number of cycles fetch has spent squashing
system.cpu.fetch.MiscStallCycles                  292                       # Number of cycles fetch has spent waiting on interrupts, or bad addresses, or out of MSHRs
system.cpu.fetch.IcacheWaitRetryStallCycles          585                       # Number of stall cycles due to full MSHR
system.cpu.fetch.CacheLines                 124157280                       # Number of cache lines fetched
system.cpu.fetch.IcacheSquashes                   262                       # Number of outstanding Icache misses that were squashed
system.cpu.fetch.rateDist::samples          199667858                       # Number of instructions fetched each cycle (Total)
system.cpu.fetch.rateDist::mean              1.854891                       # Number of instructions fetched each cycle (Total)
system.cpu.fetch.rateDist::stdev             0.996366                       # Number of instructions fetched each cycle (Total)
system.cpu.fetch.rateDist::underflows               0      0.00%      0.00% # Number of instructions fetched each cycle (Total)
system.cpu.fetch.rateDist::0                 10286199      5.15%      5.15% # Number of instructions fetched each cycle (Total)
system.cpu.fetch.rateDist::1                 84840082     42.49%     47.64% # Number of instructions fetched each cycle (Total)
system.cpu.fetch.rateDist::2                 28102742     14.07%     61.72% # Number of instructions fetched each cycle (Total)
system.cpu.fetch.rateDist::3                 76438835     38.28%    100.00% # Number of instructions fetched each cycle (Total)
system.cpu.fetch.rateDist::overflows                0      0.00%    100.00% # Number of instructions fetched each cycle (Total)
system.cpu.fetch.rateDist::min_value                0                       # Number of instructions fetched each cycle (Total)
system.cpu.fetch.rateDist::max_value                3                       # Number of instructions fetched each cycle (Total)
system.cpu.fetch.rateDist::total            199667858                       # Number of instructions fetched each cycle (Total)
system.cpu.fetch.branchRate                  0.171189                       # Number of branch fetches per cycle
system.cpu.fetch.rate                        1.829107                       # Number of inst fetches per cycle
system.cpu.decode.IdleCycles                 20453853                       # Number of cycles decode is idle
system.cpu.decode.BlockedCycles              27093776                       # Number of cycles decode is blocked
system.cpu.decode.RunCycles                 132795364                       # Number of cycles decode is running
system.cpu.decode.UnblockCycles              14662858                       # Number of cycles decode is unblocking
system.cpu.decode.SquashCycles                4662007                       # Number of cycles decode is squashing
system.cpu.decode.BranchResolved             20607768                       # Number of times decode resolved a branch
system.cpu.decode.BranchMispred                   220                       # Number of times decode detected a branch misprediction
system.cpu.decode.DecodedInsts              329832789                       # Number of instructions handled by decode
system.cpu.decode.SquashedInsts              16261690                       # Number of squashed instructions handled by decode
system.cpu.rename.SquashCycles                4662007                       # Number of cycles rename is squashing
system.cpu.rename.IdleCycles                 39724981                       # Number of cycles rename is idle
system.cpu.rename.BlockCycles                11059117                       # Number of cycles rename is blocking
system.cpu.rename.serializeStallCycles          10219                       # count of cycles rename stalled for serializing inst
system.cpu.rename.RunCycles                 127694856                       # Number of cycles rename is running
system.cpu.rename.UnblockCycles              16516678                       # Number of cycles rename is unblocking
system.cpu.rename.RenamedInsts              310588502                       # Number of instructions processed by rename
system.cpu.rename.SquashedInsts               7129419                       # Number of squashed instructions processed by rename
system.cpu.rename.ROBFullEvents               2998866                       # Number of times rename has blocked due to ROB full
system.cpu.rename.IQFullEvents                      5                       # Number of times rename has blocked due to IQ full
system.cpu.rename.LQFullEvents                8431062                       # Number of times rename has blocked due to LQ full
system.cpu.rename.SQFullEvents                   8448                       # Number of times rename has blocked due to SQ full
system.cpu.rename.FullRegisterEvents              714                       # Number of times there has been no free registers
system.cpu.rename.RenamedOperands           318863785                       # Number of destination operands rename has renamed
system.cpu.rename.RenameLookups             430009178                       # Number of register rename lookups that rename has made
system.cpu.rename.int_rename_lookups        363666308                       # Number of integer rename lookups
system.cpu.rename.vec_rename_lookups             8203                       # Number of vector rename lookups
system.cpu.rename.CommittedMaps             199069041                       # Number of HB maps that are committed
system.cpu.rename.UndoneMaps                119794744                       # Number of HB maps that are undone due to squashing
system.cpu.rename.serializingInsts                432                       # count of serializing insts renamed
system.cpu.rename.tempSerializingInsts            298                       # count of temporary serializing insts renamed
system.cpu.rename.skidInsts                  27618068                       # count of insts added to the skid buffer
system.cpu.memDep0.insertedLoads            129592812                       # Number of loads inserted to the mem dependence unit.
system.cpu.memDep0.insertedStores            30507330                       # Number of stores inserted to the mem dependence unit.
system.cpu.memDep0.conflictingLoads          31525813                       # Number of conflicting loads.
system.cpu.memDep0.conflictingStores          6026022                       # Number of conflicting stores.
system.cpu.iq.iqInstsAdded                  303009756                       # Number of instructions added to the IQ (excludes non-spec)
system.cpu.iq.iqNonSpecInstsAdded                 290                       # Number of non-speculative instructions added to the IQ
system.cpu.iq.iqInstsIssued                 253672377                       # Number of instructions issued
system.cpu.iq.iqSquashedInstsIssued           3287110                       # Number of squashed instructions issued
system.cpu.iq.iqSquashedInstsExamined       111302671                       # Number of squashed instructions iterated over during squash; mainly for profiling
system.cpu.iq.iqSquashedOperandsExamined     96504276                       # Number of squashed operands that are examined and possibly removed from graph
system.cpu.iq.iqSquashedNonSpecRemoved             62                       # Number of squashed non-spec instructions that were removed
system.cpu.iq.issued_per_cycle::samples     199667858                       # Number of insts issued each cycle
system.cpu.iq.issued_per_cycle::mean         1.270472                       # Number of insts issued each cycle
system.cpu.iq.issued_per_cycle::stdev        0.964888                       # Number of insts issued each cycle
system.cpu.iq.issued_per_cycle::underflows            0      0.00%      0.00% # Number of insts issued each cycle
system.cpu.iq.issued_per_cycle::0            53340019     26.71%     26.71% # Number of insts issued each cycle
system.cpu.iq.issued_per_cycle::1            58552523     29.32%     56.04% # Number of insts issued each cycle
system.cpu.iq.issued_per_cycle::2            68544090     34.33%     90.37% # Number of insts issued each cycle
system.cpu.iq.issued_per_cycle::3            18893316      9.46%     99.83% # Number of insts issued each cycle
system.cpu.iq.issued_per_cycle::4              337824      0.17%    100.00% # Number of insts issued each cycle
system.cpu.iq.issued_per_cycle::5                  86      0.00%    100.00% # Number of insts issued each cycle
system.cpu.iq.issued_per_cycle::6                   0      0.00%    100.00% # Number of insts issued each cycle
system.cpu.iq.issued_per_cycle::7                   0      0.00%    100.00% # Number of insts issued each cycle
system.cpu.iq.issued_per_cycle::8                   0      0.00%    100.00% # Number of insts issued each cycle
system.cpu.iq.issued_per_cycle::overflows            0      0.00%    100.00% # Number of insts issued each cycle
system.cpu.iq.issued_per_cycle::min_value            0                       # Number of insts issued each cycle
system.cpu.iq.issued_per_cycle::max_value            5                       # Number of insts issued each cycle
system.cpu.iq.issued_per_cycle::total       199667858                       # Number of insts issued each cycle
system.cpu.iq.fu_full::No_OpClass                   0      0.00%      0.00% # attempts to use FU when none available
system.cpu.iq.fu_full::IntAlu                 4576203      6.31%      6.31% # attempts to use FU when none available
system.cpu.iq.fu_full::IntMult                      0      0.00%      6.31% # attempts to use FU when none available
system.cpu.iq.fu_full::IntDiv                       0      0.00%      6.31% # attempts to use FU when none available
system.cpu.iq.fu_full::FloatAdd                     0      0.00%      6.31% # attempts to use FU when none available
system.cpu.iq.fu_full::FloatCmp                     0      0.00%      6.31% # attempts to use FU when none available
system.cpu.iq.fu_full::FloatCvt                     0      0.00%      6.31% # attempts to use FU when none available
system.cpu.iq.fu_full::FloatMult                    0      0.00%      6.31% # attempts to use FU when none available
system.cpu.iq.fu_full::FloatMultAcc                 0      0.00%      6.31% # attempts to use FU when none available
system.cpu.iq.fu_full::FloatDiv                     0      0.00%      6.31% # attempts to use FU when none available
system.cpu.iq.fu_full::FloatMisc                    0      0.00%      6.31% # attempts to use FU when none available
system.cpu.iq.fu_full::FloatSqrt                    0      0.00%      6.31% # attempts to use FU when none available
system.cpu.iq.fu_full::SimdAdd                      0      0.00%      6.31% # attempts to use FU when none available
system.cpu.iq.fu_full::SimdAddAcc                   0      0.00%      6.31% # attempts to use FU when none available
system.cpu.iq.fu_full::SimdAlu                     56      0.00%      6.31% # attempts to use FU when none available
system.cpu.iq.fu_full::SimdCmp                    150      0.00%      6.31% # attempts to use FU when none available
system.cpu.iq.fu_full::SimdCvt                      0      0.00%      6.31% # attempts to use FU when none available
system.cpu.iq.fu_full::SimdMisc                     0      0.00%      6.31% # attempts to use FU when none available
system.cpu.iq.fu_full::SimdMult                     0      0.00%      6.31% # attempts to use FU when none available
system.cpu.iq.fu_full::SimdMultAcc                  0      0.00%      6.31% # attempts to use FU when none available
system.cpu.iq.fu_full::SimdShift                    0      0.00%      6.31% # attempts to use FU when none available
system.cpu.iq.fu_full::SimdShiftAcc                 0      0.00%      6.31% # attempts to use FU when none available
system.cpu.iq.fu_full::SimdSqrt                     0      0.00%      6.31% # attempts to use FU when none available
system.cpu.iq.fu_full::SimdFloatAdd                 0      0.00%      6.31% # attempts to use FU when none available
system.cpu.iq.fu_full::SimdFloatAlu                 0      0.00%      6.31% # attempts to use FU when none available
system.cpu.iq.fu_full::SimdFloatCmp                 0      0.00%      6.31% # attempts to use FU when none available
system.cpu.iq.fu_full::SimdFloatCvt                 0      0.00%      6.31% # attempts to use FU when none available
system.cpu.iq.fu_full::SimdFloatDiv                 0      0.00%      6.31% # attempts to use FU when none available
system.cpu.iq.fu_full::SimdFloatMisc                0      0.00%      6.31% # attempts to use FU when none available
system.cpu.iq.fu_full::SimdFloatMult                0      0.00%      6.31% # attempts to use FU when none available
system.cpu.iq.fu_full::SimdFloatMultAcc             0      0.00%      6.31% # attempts to use FU when none available
system.cpu.iq.fu_full::SimdFloatSqrt                0      0.00%      6.31% # attempts to use FU when none available
system.cpu.iq.fu_full::MemRead               63117504     86.99%     93.30% # attempts to use FU when none available
system.cpu.iq.fu_full::MemWrite               4860672      6.70%    100.00% # attempts to use FU when none available
system.cpu.iq.fu_full::FloatMemRead                 0      0.00%    100.00% # attempts to use FU when none available
system.cpu.iq.fu_full::FloatMemWrite                0      0.00%    100.00% # attempts to use FU when none available
system.cpu.iq.fu_full::IprAccess                    0      0.00%    100.00% # attempts to use FU when none available
system.cpu.iq.fu_full::InstPrefetch                 0      0.00%    100.00% # attempts to use FU when none available
system.cpu.iq.FU_type_0::No_OpClass               211      0.00%      0.00% # Type of FU issued
system.cpu.iq.FU_type_0::IntAlu             114238683     45.03%     45.03% # Type of FU issued
system.cpu.iq.FU_type_0::IntMult              1501882      0.59%     45.63% # Type of FU issued
system.cpu.iq.FU_type_0::IntDiv                     2      0.00%     45.63% # Type of FU issued
system.cpu.iq.FU_type_0::FloatAdd                   0      0.00%     45.63% # Type of FU issued
system.cpu.iq.FU_type_0::FloatCmp                   0      0.00%     45.63% # Type of FU issued
system.cpu.iq.FU_type_0::FloatCvt                   0      0.00%     45.63% # Type of FU issued
system.cpu.iq.FU_type_0::FloatMult                  0      0.00%     45.63% # Type of FU issued
system.cpu.iq.FU_type_0::FloatMultAcc               0      0.00%     45.63% # Type of FU issued
system.cpu.iq.FU_type_0::FloatDiv                   0      0.00%     45.63% # Type of FU issued
system.cpu.iq.FU_type_0::FloatMisc                  0      0.00%     45.63% # Type of FU issued
system.cpu.iq.FU_type_0::FloatSqrt                  0      0.00%     45.63% # Type of FU issued
system.cpu.iq.FU_type_0::SimdAdd                  511      0.00%     45.63% # Type of FU issued
system.cpu.iq.FU_type_0::SimdAddAcc                 0      0.00%     45.63% # Type of FU issued
system.cpu.iq.FU_type_0::SimdAlu                  908      0.00%     45.63% # Type of FU issued
system.cpu.iq.FU_type_0::SimdCmp                  844      0.00%     45.63% # Type of FU issued
system.cpu.iq.FU_type_0::SimdCvt                    0      0.00%     45.63% # Type of FU issued
system.cpu.iq.FU_type_0::SimdMisc                 707      0.00%     45.63% # Type of FU issued
system.cpu.iq.FU_type_0::SimdMult                   0      0.00%     45.63% # Type of FU issued
system.cpu.iq.FU_type_0::SimdMultAcc                0      0.00%     45.63% # Type of FU issued
system.cpu.iq.FU_type_0::SimdShift                  0      0.00%     45.63% # Type of FU issued
system.cpu.iq.FU_type_0::SimdShiftAcc               0      0.00%     45.63% # Type of FU issued
system.cpu.iq.FU_type_0::SimdSqrt                   0      0.00%     45.63% # Type of FU issued
system.cpu.iq.FU_type_0::SimdFloatAdd               0      0.00%     45.63% # Type of FU issued
system.cpu.iq.FU_type_0::SimdFloatAlu               0      0.00%     45.63% # Type of FU issued
system.cpu.iq.FU_type_0::SimdFloatCmp               0      0.00%     45.63% # Type of FU issued
system.cpu.iq.FU_type_0::SimdFloatCvt               0      0.00%     45.63% # Type of FU issued
system.cpu.iq.FU_type_0::SimdFloatDiv               0      0.00%     45.63% # Type of FU issued
system.cpu.iq.FU_type_0::SimdFloatMisc              0      0.00%     45.63% # Type of FU issued
system.cpu.iq.FU_type_0::SimdFloatMult              0      0.00%     45.63% # Type of FU issued
system.cpu.iq.FU_type_0::SimdFloatMultAcc            0      0.00%     45.63% # Type of FU issued
system.cpu.iq.FU_type_0::SimdFloatSqrt              0      0.00%     45.63% # Type of FU issued
system.cpu.iq.FU_type_0::MemRead            114053231     44.96%     90.59% # Type of FU issued
system.cpu.iq.FU_type_0::MemWrite            23875398      9.41%    100.00% # Type of FU issued
system.cpu.iq.FU_type_0::FloatMemRead               0      0.00%    100.00% # Type of FU issued
system.cpu.iq.FU_type_0::FloatMemWrite              0      0.00%    100.00% # Type of FU issued
system.cpu.iq.FU_type_0::IprAccess                  0      0.00%    100.00% # Type of FU issued
system.cpu.iq.FU_type_0::InstPrefetch               0      0.00%    100.00% # Type of FU issued
system.cpu.iq.FU_type_0::total              253672377                       # Type of FU issued
system.cpu.iq.rate                           1.270221                       # Inst issue rate
system.cpu.iq.fu_busy_cnt                    72554585                       # FU busy when requested
system.cpu.iq.fu_busy_rate                   0.286017                       # FU busy rate (busy events/executed inst)
system.cpu.iq.int_inst_queue_reads          782840181                       # Number of integer instruction queue reads
system.cpu.iq.int_inst_queue_writes         414309078                       # Number of integer instruction queue writes
system.cpu.iq.int_inst_queue_wakeup_accesses    237988831                       # Number of integer instruction queue wakeup accesses
system.cpu.iq.fp_inst_queue_reads                   0                       # Number of floating instruction queue reads
system.cpu.iq.fp_inst_queue_writes                  0                       # Number of floating instruction queue writes
system.cpu.iq.fp_inst_queue_wakeup_accesses            0                       # Number of floating instruction queue wakeup accesses
system.cpu.iq.int_alu_accesses              326218980                       # Number of integer alu accesses
system.cpu.iq.fp_alu_accesses                       0                       # Number of floating point alu accesses
system.cpu.iew.lsq.thread0.forwLoads         27603138                       # Number of loads that had data forwarded from stores
system.cpu.iew.lsq.thread0.invAddrLoads             0                       # Number of loads ignored due to an invalid address
system.cpu.iew.lsq.thread0.squashedLoads     51319648                       # Number of loads squashed
system.cpu.iew.lsq.thread0.ignoredResponses        72942                       # Number of memory responses ignored because the instruction is squashed
system.cpu.iew.lsq.thread0.memOrderViolation         4325                       # Number of memory ordering violations
system.cpu.iew.lsq.thread0.squashedStores     12181269                       # Number of stores squashed
system.cpu.iew.lsq.thread0.invAddrSwpfs             0                       # Number of software prefetches ignored due to an invalid address
system.cpu.iew.lsq.thread0.blockedLoads             0                       # Number of blocked loads due to partial load-store forwarding
system.cpu.iew.lsq.thread0.rescheduledLoads          111                       # Number of loads that were rescheduled
system.cpu.iew.lsq.thread0.cacheBlocked            73                       # Number of times an access to memory failed due to the cache being blocked
system.cpu.iew.iewIdleCycles                        0                       # Number of cycles IEW is idle
system.cpu.iew.iewSquashCycles                4662007                       # Number of cycles IEW is squashing
system.cpu.iew.iewBlockCycles                10546451                       # Number of cycles IEW is blocking
system.cpu.iew.iewUnblockCycles                 23555                       # Number of cycles IEW is unblocking
system.cpu.iew.iewDispatchedInsts           304312279                       # Number of instructions dispatched to IQ
system.cpu.iew.iewDispSquashedInsts                 0                       # Number of squashed instructions skipped by dispatch
system.cpu.iew.iewDispLoadInsts             129592812                       # Number of dispatched load instructions
system.cpu.iew.iewDispStoreInsts             30507330                       # Number of dispatched store instructions
system.cpu.iew.iewDispNonSpecInsts                289                       # Number of dispatched non-speculative instructions
system.cpu.iew.iewIQFullEvents                      0                       # Number of times the IQ has become full, causing a stall
system.cpu.iew.iewLSQFullEvents                 23553                       # Number of times the LSQ has become full, causing a stall
system.cpu.iew.memOrderViolationEvents           4325                       # Number of memory order violations
system.cpu.iew.predictedTakenIncorrect        3013779                       # Number of branches that were predicted taken incorrectly
system.cpu.iew.predictedNotTakenIncorrect      2054768                       # Number of branches that were predicted not taken incorrectly
system.cpu.iew.branchMispredicts              5068547                       # Number of branch mispredicts detected at execute
system.cpu.iew.iewExecutedInsts             244456764                       # Number of executed instructions
system.cpu.iew.iewExecLoadInsts             107486474                       # Number of load instructions executed
system.cpu.iew.iewExecSquashedInsts           9215613                       # Number of squashed instructions skipped in execute
system.cpu.iew.exec_swp                             0                       # number of swp insts executed
system.cpu.iew.exec_nop                       1302233                       # number of nop insts executed
system.cpu.iew.exec_refs                    129274242                       # number of memory reference insts executed
system.cpu.iew.exec_branches                 21809600                       # Number of branches executed
system.cpu.iew.exec_stores                   21787768                       # Number of stores executed
system.cpu.iew.exec_rate                     1.224075                       # Inst execution rate
system.cpu.iew.wb_sent                      240445767                       # cumulative count of insts sent to commit
system.cpu.iew.wb_count                     237994033                       # cumulative count of insts written-back
system.cpu.iew.wb_producers                 191407546                       # num instructions producing a value
system.cpu.iew.wb_consumers                 231866215                       # num instructions consuming a value
system.cpu.iew.wb_rate                       1.191714                       # insts written-back per cycle
system.cpu.iew.wb_fanout                     0.825509                       # average fanout of values written-back
system.cpu.commit.commitSquashedInsts       103712473                       # The number of squashed insts skipped by commit
system.cpu.commit.commitNonSpecStalls             228                       # The number of times commit has been forced to stall to communicate backwards
system.cpu.commit.branchMispredicts           4658279                       # The number of times a branch was mispredicted
system.cpu.commit.committed_per_cycle::samples    184460662                       # Number of insts commited each cycle
system.cpu.commit.committed_per_cycle::mean     1.041691                       # Number of insts commited each cycle
system.cpu.commit.committed_per_cycle::stdev     1.786226                       # Number of insts commited each cycle
system.cpu.commit.committed_per_cycle::underflows            0      0.00%      0.00% # Number of insts commited each cycle
system.cpu.commit.committed_per_cycle::0     98453060     53.37%     53.37% # Number of insts commited each cycle
system.cpu.commit.committed_per_cycle::1     48963571     26.54%     79.92% # Number of insts commited each cycle
system.cpu.commit.committed_per_cycle::2     16754941      9.08%     89.00% # Number of insts commited each cycle
system.cpu.commit.committed_per_cycle::3      5562901      3.02%     92.02% # Number of insts commited each cycle
system.cpu.commit.committed_per_cycle::4      3573686      1.94%     93.95% # Number of insts commited each cycle
system.cpu.commit.committed_per_cycle::5       801667      0.43%     94.39% # Number of insts commited each cycle
system.cpu.commit.committed_per_cycle::6      2396117      1.30%     95.69% # Number of insts commited each cycle
system.cpu.commit.committed_per_cycle::7      3328615      1.80%     97.49% # Number of insts commited each cycle
system.cpu.commit.committed_per_cycle::8      4626104      2.51%    100.00% # Number of insts commited each cycle
system.cpu.commit.committed_per_cycle::overflows            0      0.00%    100.00% # Number of insts commited each cycle
system.cpu.commit.committed_per_cycle::min_value            0                       # Number of insts commited each cycle
system.cpu.commit.committed_per_cycle::max_value            8                       # Number of insts commited each cycle
system.cpu.commit.committed_per_cycle::total    184460662                       # Number of insts commited each cycle
system.cpu.commit.committedInsts            190366014                       # Number of instructions committed
system.cpu.commit.committedOps              192151074                       # Number of ops (including micro ops) committed
system.cpu.commit.swp_count                         0                       # Number of s/w prefetches committed
system.cpu.commit.refs                       96599225                       # Number of memory references committed
system.cpu.commit.loads                      78273164                       # Number of loads committed
system.cpu.commit.membars                         216                       # Number of memory barriers committed
system.cpu.commit.branches                   18218945                       # Number of branches committed
system.cpu.commit.vec_insts                      5148                       # Number of committed Vector instructions.
system.cpu.commit.fp_insts                          0                       # Number of committed floating point instructions.
system.cpu.commit.int_insts                 175381013                       # Number of committed integer instructions.
system.cpu.commit.function_calls               944792                       # Number of function calls committed.
system.cpu.commit.op_class_0::No_OpClass          202      0.00%      0.00% # Class of committed instruction
system.cpu.commit.op_class_0::IntAlu         94048208     48.94%     48.95% # Class of committed instruction
system.cpu.commit.op_class_0::IntMult         1500503      0.78%     49.73% # Class of committed instruction
system.cpu.commit.op_class_0::IntDiv                2      0.00%     49.73% # Class of committed instruction
system.cpu.commit.op_class_0::FloatAdd              0      0.00%     49.73% # Class of committed instruction
system.cpu.commit.op_class_0::FloatCmp              0      0.00%     49.73% # Class of committed instruction
system.cpu.commit.op_class_0::FloatCvt              0      0.00%     49.73% # Class of committed instruction
system.cpu.commit.op_class_0::FloatMult             0      0.00%     49.73% # Class of committed instruction
system.cpu.commit.op_class_0::FloatMultAcc            0      0.00%     49.73% # Class of committed instruction
system.cpu.commit.op_class_0::FloatDiv              0      0.00%     49.73% # Class of committed instruction
system.cpu.commit.op_class_0::FloatMisc             0      0.00%     49.73% # Class of committed instruction
system.cpu.commit.op_class_0::FloatSqrt             0      0.00%     49.73% # Class of committed instruction
system.cpu.commit.op_class_0::SimdAdd             511      0.00%     49.73% # Class of committed instruction
system.cpu.commit.op_class_0::SimdAddAcc            0      0.00%     49.73% # Class of committed instruction
system.cpu.commit.op_class_0::SimdAlu             908      0.00%     49.73% # Class of committed instruction
system.cpu.commit.op_class_0::SimdCmp             808      0.00%     49.73% # Class of committed instruction
system.cpu.commit.op_class_0::SimdCvt               0      0.00%     49.73% # Class of committed instruction
system.cpu.commit.op_class_0::SimdMisc            707      0.00%     49.73% # Class of committed instruction
system.cpu.commit.op_class_0::SimdMult              0      0.00%     49.73% # Class of committed instruction
system.cpu.commit.op_class_0::SimdMultAcc            0      0.00%     49.73% # Class of committed instruction
system.cpu.commit.op_class_0::SimdShift             0      0.00%     49.73% # Class of committed instruction
system.cpu.commit.op_class_0::SimdShiftAcc            0      0.00%     49.73% # Class of committed instruction
system.cpu.commit.op_class_0::SimdSqrt              0      0.00%     49.73% # Class of committed instruction
system.cpu.commit.op_class_0::SimdFloatAdd            0      0.00%     49.73% # Class of committed instruction
system.cpu.commit.op_class_0::SimdFloatAlu            0      0.00%     49.73% # Class of committed instruction
[...]
system.l2.ReadCleanReq_miss_rate::total      0.978155                       # miss rate for ReadCleanReq accesses
system.l2.ReadSharedReq_miss_rate::cpu.data     0.960784                       # miss rate for ReadSharedReq accesses
system.l2.ReadSharedReq_miss_rate::total     0.960784                       # miss rate for ReadSharedReq accesses
system.l2.demand_miss_rate::cpu.inst         0.978155                       # miss rate for demand accesses
system.l2.demand_miss_rate::cpu.data         0.345018                       # miss rate for demand accesses
system.l2.demand_miss_rate::total            0.618449                       # miss rate for demand accesses
system.l2.overall_miss_rate::cpu.inst        0.978155                       # miss rate for overall accesses
system.l2.overall_miss_rate::cpu.data        0.345018                       # miss rate for overall accesses
system.l2.overall_miss_rate::total           0.618449                       # miss rate for overall accesses
system.l2.ReadExReq_avg_miss_latency::cpu.data 130269.662921                       # average ReadExReq miss latency
system.l2.ReadExReq_avg_miss_latency::total 130269.662921                       # average ReadExReq miss latency
system.l2.ReadCleanReq_avg_miss_latency::cpu.inst 88909.429280                       # average ReadCleanReq miss latency
system.l2.ReadCleanReq_avg_miss_latency::total 88909.429280                       # average ReadCleanReq miss latency
system.l2.ReadSharedReq_avg_miss_latency::cpu.data 106403.061224                       # average ReadSharedReq miss latency
system.l2.ReadSharedReq_avg_miss_latency::total 106403.061224                       # average ReadSharedReq miss latency
system.l2.demand_avg_miss_latency::cpu.inst 88909.429280                       # average overall miss latency
system.l2.demand_avg_miss_latency::cpu.data 117762.032086                       # average overall miss latency
system.l2.demand_avg_miss_latency::total 98054.237288                       # average overall miss latency
system.l2.overall_avg_miss_latency::cpu.inst 88909.429280                       # average overall miss latency
system.l2.overall_avg_miss_latency::cpu.data 117762.032086                       # average overall miss latency
system.l2.overall_avg_miss_latency::total 98054.237288                       # average overall miss latency
system.l2.blocked_cycles::no_mshrs                  0                       # number of cycles access was blocked
system.l2.blocked_cycles::no_targets                0                       # number of cycles access was blocked
system.l2.blocked::no_mshrs                         0                       # number of cycles access was blocked
system.l2.blocked::no_targets                       0                       # number of cycles access was blocked
system.l2.avg_blocked_cycles::no_mshrs            nan                       # average number of cycles each access was blocked
system.l2.avg_blocked_cycles::no_targets          nan                       # average number of cycles each access was blocked
system.l2.ReadExReq_mshr_hits::cpu.data             1                       # number of ReadExReq MSHR hits
system.l2.ReadExReq_mshr_hits::total                1                       # number of ReadExReq MSHR hits
system.l2.ReadSharedReq_mshr_hits::cpu.data            5                       # number of ReadSharedReq MSHR hits
system.l2.ReadSharedReq_mshr_hits::total            5                       # number of ReadSharedReq MSHR hits
system.l2.demand_mshr_hits::cpu.data                6                       # number of demand (read+write) MSHR hits
system.l2.demand_mshr_hits::total                   6                       # number of demand (read+write) MSHR hits
system.l2.overall_mshr_hits::cpu.data               6                       # number of overall MSHR hits
system.l2.overall_mshr_hits::total                  6                       # number of overall MSHR hits
system.l2.HardPFReq_mshr_misses::l2.prefetcher          408                       # number of HardPFReq MSHR misses
system.l2.HardPFReq_mshr_misses::total            408                       # number of HardPFReq MSHR misses
system.l2.ReadExReq_mshr_misses::cpu.data           88                       # number of ReadExReq MSHR misses
system.l2.ReadExReq_mshr_misses::total             88                       # number of ReadExReq MSHR misses
system.l2.ReadCleanReq_mshr_misses::cpu.inst          403                       # number of ReadCleanReq MSHR misses
system.l2.ReadCleanReq_mshr_misses::total          403                       # number of ReadCleanReq MSHR misses
system.l2.ReadSharedReq_mshr_misses::cpu.data           93                       # number of ReadSharedReq MSHR misses
system.l2.ReadSharedReq_mshr_misses::total           93                       # number of ReadSharedReq MSHR misses
system.l2.demand_mshr_misses::cpu.inst            403                       # number of demand (read+write) MSHR misses
system.l2.demand_mshr_misses::cpu.data            181                       # number of demand (read+write) MSHR misses
system.l2.demand_mshr_misses::total               584                       # number of demand (read+write) MSHR misses
system.l2.overall_mshr_misses::cpu.inst           403                       # number of overall MSHR misses
system.l2.overall_mshr_misses::cpu.data           181                       # number of overall MSHR misses
system.l2.overall_mshr_misses::l2.prefetcher          408                       # number of overall MSHR misses
system.l2.overall_mshr_misses::total              992                       # number of overall MSHR misses
system.l2.HardPFReq_mshr_miss_latency::l2.prefetcher     44492360                       # number of HardPFReq MSHR miss cycles
system.l2.HardPFReq_mshr_miss_latency::total     44492360                       # number of HardPFReq MSHR miss cycles
system.l2.ReadExReq_mshr_miss_latency::cpu.data     11050500                       # number of ReadExReq MSHR miss cycles
system.l2.ReadExReq_mshr_miss_latency::total     11050500                       # number of ReadExReq MSHR miss cycles
system.l2.ReadCleanReq_mshr_miss_latency::cpu.inst     33424500                       # number of ReadCleanReq MSHR miss cycles
system.l2.ReadCleanReq_mshr_miss_latency::total     33424500                       # number of ReadCleanReq MSHR miss cycles
system.l2.ReadSharedReq_mshr_miss_latency::cpu.data      9553000                       # number of ReadSharedReq MSHR miss cycles
system.l2.ReadSharedReq_mshr_miss_latency::total      9553000                       # number of ReadSharedReq MSHR miss cycles
system.l2.demand_mshr_miss_latency::cpu.inst     33424500                       # number of demand (read+write) MSHR miss cycles
system.l2.demand_mshr_miss_latency::cpu.data     20603500                       # number of demand (read+write) MSHR miss cycles
system.l2.demand_mshr_miss_latency::total     54028000                       # number of demand (read+write) MSHR miss cycles
system.l2.overall_mshr_miss_latency::cpu.inst     33424500                       # number of overall MSHR miss cycles
system.l2.overall_mshr_miss_latency::cpu.data     20603500                       # number of overall MSHR miss cycles
system.l2.overall_mshr_miss_latency::l2.prefetcher     44492360                       # number of overall MSHR miss cycles
system.l2.overall_mshr_miss_latency::total     98520360                       # number of overall MSHR miss cycles
system.l2.HardPFReq_mshr_miss_rate::l2.prefetcher          inf                       # mshr miss rate for HardPFReq accesses
system.l2.HardPFReq_mshr_miss_rate::total          inf                       # mshr miss rate for HardPFReq accesses
system.l2.ReadExReq_mshr_miss_rate::cpu.data     0.200000                       # mshr miss rate for ReadExReq accesses
system.l2.ReadExReq_mshr_miss_rate::total     0.200000                       # mshr miss rate for ReadExReq accesses
system.l2.ReadCleanReq_mshr_miss_rate::cpu.inst     0.978155                       # mshr miss rate for ReadCleanReq accesses
system.l2.ReadCleanReq_mshr_miss_rate::total     0.978155                       # mshr miss rate for ReadCleanReq accesses
system.l2.ReadSharedReq_mshr_miss_rate::cpu.data     0.911765                       # mshr miss rate for ReadSharedReq accesses
system.l2.ReadSharedReq_mshr_miss_rate::total     0.911765                       # mshr miss rate for ReadSharedReq accesses
system.l2.demand_mshr_miss_rate::cpu.inst     0.978155                       # mshr miss rate for demand accesses
system.l2.demand_mshr_miss_rate::cpu.data     0.333948                       # mshr miss rate for demand accesses
system.l2.demand_mshr_miss_rate::total       0.612159                       # mshr miss rate for demand accesses
system.l2.overall_mshr_miss_rate::cpu.inst     0.978155                       # mshr miss rate for overall accesses
system.l2.overall_mshr_miss_rate::cpu.data     0.333948                       # mshr miss rate for overall accesses
system.l2.overall_mshr_miss_rate::l2.prefetcher          inf                       # mshr miss rate for overall accesses
system.l2.overall_mshr_miss_rate::total      1.039832                       # mshr miss rate for overall accesses
system.l2.HardPFReq_avg_mshr_miss_latency::l2.prefetcher 109049.901961                       # average HardPFReq mshr miss latency
system.l2.HardPFReq_avg_mshr_miss_latency::total 109049.901961                       # average HardPFReq mshr miss latency
system.l2.ReadExReq_avg_mshr_miss_latency::cpu.data 125573.863636                       # average ReadExReq mshr miss latency
system.l2.ReadExReq_avg_mshr_miss_latency::total 125573.863636                       # average ReadExReq mshr miss latency
system.l2.ReadCleanReq_avg_mshr_miss_latency::cpu.inst 82939.205955                       # average ReadCleanReq mshr miss latency
system.l2.ReadCleanReq_avg_mshr_miss_latency::total 82939.205955                       # average ReadCleanReq mshr miss latency
system.l2.ReadSharedReq_avg_mshr_miss_latency::cpu.data 102720.430108                       # average ReadSharedReq mshr miss latency
system.l2.ReadSharedReq_avg_mshr_miss_latency::total 102720.430108                       # average ReadSharedReq mshr miss latency
system.l2.demand_avg_mshr_miss_latency::cpu.inst 82939.205955                       # average overall mshr miss latency
system.l2.demand_avg_mshr_miss_latency::cpu.data 113831.491713                       # average overall mshr miss latency
system.l2.demand_avg_mshr_miss_latency::total 92513.698630                       # average overall mshr miss latency
system.l2.overall_avg_mshr_miss_latency::cpu.inst 82939.205955                       # average overall mshr miss latency
system.l2.overall_avg_mshr_miss_latency::cpu.data 113831.491713                       # average overall mshr miss latency
system.l2.overall_avg_mshr_miss_latency::l2.prefetcher 109049.901961                       # average overall mshr miss latency
system.l2.overall_avg_mshr_miss_latency::total 99314.879032                       # average overall mshr miss latency
system.membus.snoop_filter.tot_requests           970                       # Total number of requests made to the snoop filter.
system.membus.snoop_filter.hit_single_requests           11                       # Number of requests hitting in the snoop filter with a single holder of the requested data.
system.membus.snoop_filter.hit_multi_requests            0                       # Number of requests hitting in the snoop filter with multiple (>1) holders of the requested data.
system.membus.snoop_filter.tot_snoops               0                       # Total number of snoops made to the snoop filter.
system.membus.snoop_filter.hit_single_snoops            0                       # Number of snoops hitting in the snoop filter with a single holder of the requested data.
system.membus.snoop_filter.hit_multi_snoops            0                       # Number of snoops hitting in the snoop filter with multiple (>1) holders of the requested data.
system.membus.pwrStateResidencyTicks::UNDEFINED  99853641500                       # Cumulative time (in ticks) in various power states
system.membus.trans_dist::ReadResp                880                       # Transaction distribution
system.membus.trans_dist::ReadExReq                88                       # Transaction distribution
system.membus.trans_dist::ReadExResp               88                       # Transaction distribution
system.membus.trans_dist::ReadSharedReq           882                       # Transaction distribution
system.membus.pkt_count_system.l2.mem_side::system.mem_ctrls.port         1938                       # Packet count per connected master and slave (bytes)
system.membus.pkt_count::total                   1938                       # Packet count per connected master and slave (bytes)
system.membus.pkt_size_system.l2.mem_side::system.mem_ctrls.port        61952                       # Cumulative packet size per connected master and slave (bytes)
system.membus.pkt_size::total                   61952                       # Cumulative packet size per connected master and slave (bytes)
system.membus.snoops                                0                       # Total snoops (count)
system.membus.snoopTraffic                          0                       # Total snoop traffic (bytes)
system.membus.snoop_fanout::samples               970                       # Request fanout histogram
system.membus.snoop_fanout::mean                    0                       # Request fanout histogram
system.membus.snoop_fanout::stdev                   0                       # Request fanout histogram
system.membus.snoop_fanout::underflows              0      0.00%      0.00% # Request fanout histogram
system.membus.snoop_fanout::0                     970    100.00%    100.00% # Request fanout histogram
system.membus.snoop_fanout::1                       0      0.00%    100.00% # Request fanout histogram
system.membus.snoop_fanout::overflows               0      0.00%    100.00% # Request fanout histogram
system.membus.snoop_fanout::min_value               0                       # Request fanout histogram
system.membus.snoop_fanout::max_value               0                       # Request fanout histogram
system.membus.snoop_fanout::total                 970                       # Request fanout histogram
system.membus.reqLayer0.occupancy             1260951                       # Layer occupancy (ticks)
system.membus.reqLayer0.utilization               0.0                       # Layer utilization (%)
system.membus.respLayer1.occupancy            5110306                       # Layer occupancy (ticks)
system.membus.respLayer1.utilization              0.0                       # Layer utilization (%)
system.tol2bus.snoop_filter.tot_requests         1037                       # Total number of requests made to the snoop filter.
system.tol2bus.snoop_filter.hit_single_requests           96                       # Number of requests hitting in the snoop filter with a single holder of the requested data.
system.tol2bus.snoop_filter.hit_multi_requests            0                       # Number of requests hitting in the snoop filter with multiple (>1) holders of the requested data.
system.tol2bus.snoop_filter.tot_snoops             22                       # Total number of snoops made to the snoop filter.
system.tol2bus.snoop_filter.hit_single_snoops           22                       # Number of snoops hitting in the snoop filter with a single holder of the requested data.
system.tol2bus.snoop_filter.hit_multi_snoops            0                       # Number of snoops hitting in the snoop filter with multiple (>1) holders of the requested data.
system.tol2bus.pwrStateResidencyTicks::UNDEFINED  99853641500                       # Cumulative time (in ticks) in various power states
system.tol2bus.trans_dist::ReadResp               512                       # Transaction distribution
system.tol2bus.trans_dist::WritebackDirty            9                       # Transaction distribution
system.tol2bus.trans_dist::WritebackClean           74                       # Transaction distribution
system.tol2bus.trans_dist::HardPFReq              489                       # Transaction distribution
system.tol2bus.trans_dist::ReadExReq              440                       # Transaction distribution
system.tol2bus.trans_dist::ReadExResp             440                       # Transaction distribution
system.tol2bus.trans_dist::ReadCleanReq           412                       # Transaction distribution
system.tol2bus.trans_dist::ReadSharedReq          102                       # Transaction distribution
system.tol2bus.pkt_count_system.cpu.icache.mem_side::system.l2.cpu_side          894                       # Packet count per connected master and slave (bytes)
system.tol2bus.pkt_count_system.cpu.dcache.mem_side::system.l2.cpu_side         1095                       # Packet count per connected master and slave (bytes)
system.tol2bus.pkt_count::total                  1989                       # Packet count per connected master and slave (bytes)
system.tol2bus.pkt_size_system.cpu.icache.mem_side::system.l2.cpu_side        30848                       # Cumulative packet size per connected master and slave (bytes)
system.tol2bus.pkt_size_system.cpu.dcache.mem_side::system.l2.cpu_side        35392                       # Cumulative packet size per connected master and slave (bytes)
system.tol2bus.pkt_size::total                  66240                       # Cumulative packet size per connected master and slave (bytes)
system.tol2bus.snoops                             489                       # Total snoops (count)
system.tol2bus.snoopTraffic                         0                       # Total snoop traffic (bytes)
system.tol2bus.snoop_fanout::samples             1443                       # Request fanout histogram
system.tol2bus.snoop_fanout::mean            0.024255                       # Request fanout histogram
system.tol2bus.snoop_fanout::stdev           0.153893                       # Request fanout histogram
system.tol2bus.snoop_fanout::underflows             0      0.00%      0.00% # Request fanout histogram
system.tol2bus.snoop_fanout::0                   1408     97.57%     97.57% # Request fanout histogram
system.tol2bus.snoop_fanout::1                     35      2.43%    100.00% # Request fanout histogram
system.tol2bus.snoop_fanout::2                      0      0.00%    100.00% # Request fanout histogram
system.tol2bus.snoop_fanout::3                      0      0.00%    100.00% # Request fanout histogram
system.tol2bus.snoop_fanout::4                      0      0.00%    100.00% # Request fanout histogram
system.tol2bus.snoop_fanout::overflows              0      0.00%    100.00% # Request fanout histogram
system.tol2bus.snoop_fanout::min_value              0                       # Request fanout histogram
system.tol2bus.snoop_fanout::max_value              1                       # Request fanout histogram
system.tol2bus.snoop_fanout::total               1443                       # Request fanout histogram
system.tol2bus.reqLayer0.occupancy             601500                       # Layer occupancy (ticks)
system.tol2bus.reqLayer0.utilization              0.0                       # Layer utilization (%)
system.tol2bus.respLayer0.occupancy            615000                       # Layer occupancy (ticks)
system.tol2bus.respLayer0.utilization             0.0                       # Layer utilization (%)
system.tol2bus.respLayer1.occupancy            813998                       # Layer occupancy (ticks)
system.tol2bus.respLayer1.utilization             0.0                       # Layer utilization (%)

---------- End Simulation Statistics   ----------
