
---------- Begin Simulation Statistics ----------
sim_seconds                                  0.655222                       # Number of seconds simulated
sim_ticks                                655222291500                       # Number of ticks simulated
final_tick                               655222291500                       # Number of ticks from beginning of simulation (restored from checkpoints and never reset)
sim_freq                                 1000000000000                       # Frequency of simulated ticks
host_inst_rate                                 291551                       # Simulator instruction rate (inst/s)
host_op_rate                                   324433                       # Simulator op (including micro ops) rate (op/s)
host_tick_rate                              215447078                       # Simulator tick rate (ticks/s)
host_mem_usage                                 671140                       # Number of bytes of host memory used
host_seconds                                  3041.22                       # Real time elapsed on the host
sim_insts                                   886671695                       # Number of instructions simulated
sim_ops                                     986672847                       # Number of ops (including micro ops) simulated
system.voltage_domain.voltage                       1                       # Voltage in Volts
system.clk_domain.clock                          1000                       # Clock period in ticks
system.mem_ctrls.pwrStateResidencyTicks::UNDEFINED 655222291500                       # Cumulative time (in ticks) in various power states
system.mem_ctrls.bytes_read::cpu.inst           22400                       # Number of bytes read from this memory
system.mem_ctrls.bytes_read::cpu.data           10624                       # Number of bytes read from this memory
system.mem_ctrls.bytes_read::l2.prefetcher         2560                       # Number of bytes read from this memory
system.mem_ctrls.bytes_read::total              35584                       # Number of bytes read from this memory
system.mem_ctrls.bytes_inst_read::cpu.inst        22400                       # Number of instructions bytes read from this memory
system.mem_ctrls.bytes_inst_read::total         22400                       # Number of instructions bytes read from this memory
system.mem_ctrls.num_reads::cpu.inst              350                       # Number of read requests responded to by this memory
system.mem_ctrls.num_reads::cpu.data              166                       # Number of read requests responded to by this memory
system.mem_ctrls.num_reads::l2.prefetcher           40                       # Number of read requests responded to by this memory
system.mem_ctrls.num_reads::total                 556                       # Number of read requests responded to by this memory
system.mem_ctrls.bw_read::cpu.inst              34187                       # Total read bandwidth from this memory (bytes/s)
system.mem_ctrls.bw_read::cpu.data              16214                       # Total read bandwidth from this memory (bytes/s)
system.mem_ctrls.bw_read::l2.prefetcher          3907                       # Total read bandwidth from this memory (bytes/s)
system.mem_ctrls.bw_read::total                 54308                       # Total read bandwidth from this memory (bytes/s)
system.mem_ctrls.bw_inst_read::cpu.inst         34187                       # Instruction read bandwidth from this memory (bytes/s)
system.mem_ctrls.bw_inst_read::total            34187                       # Instruction read bandwidth from this memory (bytes/s)
system.mem_ctrls.bw_total::cpu.inst             34187                       # Total bandwidth to/from this memory (bytes/s)
system.mem_ctrls.bw_total::cpu.data             16214                       # Total bandwidth to/from this memory (bytes/s)
system.mem_ctrls.bw_total::l2.prefetcher         3907                       # Total bandwidth to/from this memory (bytes/s)
system.mem_ctrls.bw_total::total                54308                       # Total bandwidth to/from this memory (bytes/s)
system.mem_ctrls.readReqs                         557                       # Number of read requests accepted
system.mem_ctrls.writeReqs                          0                       # Number of write requests accepted
system.mem_ctrls.readBursts                       557                       # Number of DRAM read bursts, including those serviced by the write queue
system.mem_ctrls.writeBursts                        0                       # Number of DRAM write bursts, including those merged in the write queue
system.mem_ctrls.bytesReadDRAM                  35648                       # Total number of bytes read from DRAM
system.mem_ctrls.bytesReadWrQ                       0                       # Total number of bytes read from write queue
system.mem_ctrls.bytesWritten                       0                       # Total number of bytes written to DRAM
system.mem_ctrls.bytesReadSys                   35648                       # Total read bytes from the system interface side
system.mem_ctrls.bytesWrittenSys                    0                       # Total written bytes from the system interface side
system.mem_ctrls.servicedByWrQ                      0                       # Number of DRAM read bursts serviced by the write queue
system.mem_ctrls.mergedWrBursts                     0                       # Number of DRAM write bursts merged with an existing one
system.mem_ctrls.neitherReadNorWriteReqs            0                       # Number of requests that are neither read nor write
system.mem_ctrls.perBankRdBursts::0               110                       # Per bank write bursts
system.mem_ctrls.perBankRdBursts::1                49                       # Per bank write bursts
system.mem_ctrls.perBankRdBursts::2                33                       # Per bank write bursts
system.mem_ctrls.perBankRdBursts::3                29                       # Per bank write bursts
system.mem_ctrls.perBankRdBursts::4                16                       # Per bank write bursts
system.mem_ctrls.perBankRdBursts::5                32                       # Per bank write bursts
system.mem_ctrls.perBankRdBursts::6                20                       # Per bank write bursts
system.mem_ctrls.perBankRdBursts::7                38                       # Per bank write bursts
system.mem_ctrls.perBankRdBursts::8                26                       # Per bank write bursts
system.mem_ctrls.perBankRdBursts::9                18                       # Per bank write bursts
system.mem_ctrls.perBankRdBursts::10               17                       # Per bank write bursts
system.mem_ctrls.perBankRdBursts::11               12                       # Per bank write bursts
system.mem_ctrls.perBankRdBursts::12               48                       # Per bank write bursts
system.mem_ctrls.perBankRdBursts::13                5                       # Per bank write bursts
system.mem_ctrls.perBankRdBursts::14               23                       # Per bank write bursts
system.mem_ctrls.perBankRdBursts::15               81                       # Per bank write bursts
system.mem_ctrls.perBankWrBursts::0                 0                       # Per bank write bursts
system.mem_ctrls.perBankWrBursts::1                 0                       # Per bank write bursts
system.mem_ctrls.perBankWrBursts::2                 0                       # Per bank write bursts
system.mem_ctrls.perBankWrBursts::3                 0                       # Per bank write bursts
system.mem_ctrls.perBankWrBursts::4                 0                       # Per bank write bursts
system.mem_ctrls.perBankWrBursts::5                 0                       # Per bank write bursts
system.mem_ctrls.perBankWrBursts::6                 0                       # Per bank write bursts
system.mem_ctrls.perBankWrBursts::7                 0                       # Per bank write bursts
system.mem_ctrls.perBankWrBursts::8                 0                       # Per bank write bursts
system.mem_ctrls.perBankWrBursts::9                 0                       # Per bank write bursts
system.mem_ctrls.perBankWrBursts::10                0                       # Per bank write bursts
system.mem_ctrls.perBankWrBursts::11                0                       # Per bank write bursts
system.mem_ctrls.perBankWrBursts::12                0                       # Per bank write bursts
system.mem_ctrls.perBankWrBursts::13                0                       # Per bank write bursts
system.mem_ctrls.perBankWrBursts::14                0                       # Per bank write bursts
system.mem_ctrls.perBankWrBursts::15                0                       # Per bank write bursts
system.mem_ctrls.numRdRetry                         0                       # Number of times read queue was full causing retry
system.mem_ctrls.numWrRetry                         0                       # Number of times write queue was full causing retry
system.mem_ctrls.totGap                  655222282500                       # Total gap between requests
system.mem_ctrls.readPktSize::0                     0                       # Read request sizes (log2)
system.mem_ctrls.readPktSize::1                     0                       # Read request sizes (log2)
system.mem_ctrls.readPktSize::2                     0                       # Read request sizes (log2)
system.mem_ctrls.readPktSize::3                     0                       # Read request sizes (log2)
system.mem_ctrls.readPktSize::4                     0                       # Read request sizes (log2)
system.mem_ctrls.readPktSize::5                     0                       # Read request sizes (log2)
system.mem_ctrls.readPktSize::6                   557                       # Read request sizes (log2)
system.mem_ctrls.writePktSize::0                    0                       # Write request sizes (log2)
system.mem_ctrls.writePktSize::1                    0                       # Write request sizes (log2)
system.mem_ctrls.writePktSize::2                    0                       # Write request sizes (log2)
system.mem_ctrls.writePktSize::3                    0                       # Write request sizes (log2)
system.mem_ctrls.writePktSize::4                    0                       # Write request sizes (log2)
system.mem_ctrls.writePktSize::5                    0                       # Write request sizes (log2)
system.mem_ctrls.writePktSize::6                    0                       # Write request sizes (log2)
system.mem_ctrls.rdQLenPdf::0                     297                       # What read queue length does an incoming req see
system.mem_ctrls.rdQLenPdf::1                     161                       # What read queue length does an incoming req see
system.mem_ctrls.rdQLenPdf::2                      59                       # What read queue length does an incoming req see
system.mem_ctrls.rdQLenPdf::3                      15                       # What read queue length does an incoming req see
system.mem_ctrls.rdQLenPdf::4                       9                       # What read queue length does an incoming req see
system.mem_ctrls.rdQLenPdf::5                       3                       # What read queue length does an incoming req see
system.mem_ctrls.rdQLenPdf::6                       2                       # What read queue length does an incoming req see
system.mem_ctrls.rdQLenPdf::7                       3                       # What read queue length does an incoming req see
system.mem_ctrls.rdQLenPdf::8                       3                       # What read queue length does an incoming req see
system.mem_ctrls.rdQLenPdf::9                       2                       # What read queue length does an incoming req see
system.mem_ctrls.rdQLenPdf::10                      1                       # What read queue length does an incoming req see
system.mem_ctrls.rdQLenPdf::11                      1                       # What read queue length does an incoming req see
system.mem_ctrls.rdQLenPdf::12                      1                       # What read queue length does an incoming req see
system.mem_ctrls.rdQLenPdf::13                      0                       # What read queue length does an incoming req see
system.mem_ctrls.rdQLenPdf::14                      0                       # What read queue length does an incoming req see
system.mem_ctrls.rdQLenPdf::15                      0                       # What read queue length does an incoming req see
system.mem_ctrls.rdQLenPdf::16                      0                       # What read queue length does an incoming req see
system.mem_ctrls.rdQLenPdf::17                      0                       # What read queue length does an incoming req see
system.mem_ctrls.rdQLenPdf::18                      0                       # What read queue length does an incoming req see
system.mem_ctrls.rdQLenPdf::19                      0                       # What read queue length does an incoming req see
system.mem_ctrls.rdQLenPdf::20                      0                       # What read queue length does an incoming req see
system.mem_ctrls.rdQLenPdf::21                      0                       # What read queue length does an incoming req see
system.mem_ctrls.rdQLenPdf::22                      0                       # What read queue length does an incoming req see
system.mem_ctrls.rdQLenPdf::23                      0                       # What read queue length does an incoming req see
system.mem_ctrls.rdQLenPdf::24                      0                       # What read queue length does an incoming req see
system.mem_ctrls.rdQLenPdf::25                      0                       # What read queue length does an incoming req see
system.mem_ctrls.rdQLenPdf::26                      0                       # What read queue length does an incoming req see
system.mem_ctrls.rdQLenPdf::27                      0                       # What read queue length does an incoming req see
system.mem_ctrls.rdQLenPdf::28                      0                       # What read queue length does an incoming req see
system.mem_ctrls.rdQLenPdf::29                      0                       # What read queue length does an incoming req see
system.mem_ctrls.rdQLenPdf::30                      0                       # What read queue length does an incoming req see
system.mem_ctrls.rdQLenPdf::31                      0                       # What read queue length does an incoming req see
system.mem_ctrls.wrQLenPdf::0                       0                       # What write queue length does an incoming req see
system.mem_ctrls.wrQLenPdf::1                       0                       # What write queue length does an incoming req see
system.mem_ctrls.wrQLenPdf::2                       0                       # What write queue length does an incoming req see
system.mem_ctrls.wrQLenPdf::3                       0                       # What write queue length does an incoming req see
system.mem_ctrls.wrQLenPdf::4                       0                       # What write queue length does an incoming req see
system.mem_ctrls.wrQLenPdf::5                       0                       # What write queue length does an incoming req see
system.mem_ctrls.wrQLenPdf::6                       0                       # What write queue length does an incoming req see
system.mem_ctrls.wrQLenPdf::7                       0                       # What write queue length does an incoming req see
system.mem_ctrls.wrQLenPdf::8                       0                       # What write queue length does an incoming req see
system.mem_ctrls.wrQLenPdf::9                       0                       # What write queue length does an incoming req see
system.mem_ctrls.wrQLenPdf::10                      0                       # What write queue length does an incoming req see
system.mem_ctrls.wrQLenPdf::11                      0                       # What write queue length does an incoming req see
system.mem_ctrls.wrQLenPdf::12                      0                       # What write queue length does an incoming req see
system.mem_ctrls.wrQLenPdf::13                      0                       # What write queue length does an incoming req see
system.mem_ctrls.wrQLenPdf::14                      0                       # What write queue length does an incoming req see
system.mem_ctrls.wrQLenPdf::15                      0                       # What write queue length does an incoming req see
system.mem_ctrls.wrQLenPdf::16                      0                       # What write queue length does an incoming req see
system.mem_ctrls.wrQLenPdf::17                      0                       # What write queue length does an incoming req see
system.mem_ctrls.wrQLenPdf::18                      0                       # What write queue length does an incoming req see
system.mem_ctrls.wrQLenPdf::19                      0                       # What write queue length does an incoming req see
system.mem_ctrls.wrQLenPdf::20                      0                       # What write queue length does an incoming req see
system.mem_ctrls.wrQLenPdf::21                      0                       # What write queue length does an incoming req see
system.mem_ctrls.wrQLenPdf::22                      0                       # What write queue length does an incoming req see
system.mem_ctrls.wrQLenPdf::23                      0                       # What write queue length does an incoming req see
system.mem_ctrls.wrQLenPdf::24                      0                       # What write queue length does an incoming req see
system.mem_ctrls.wrQLenPdf::25                      0                       # What write queue length does an incoming req see
system.mem_ctrls.wrQLenPdf::26                      0                       # What write queue length does an incoming req see
system.mem_ctrls.wrQLenPdf::27                      0                       # What write queue length does an incoming req see
system.mem_ctrls.wrQLenPdf::28                      0                       # What write queue length does an incoming req see
system.mem_ctrls.wrQLenPdf::29                      0                       # What write queue length does an incoming req see
system.mem_ctrls.wrQLenPdf::30                      0                       # What write queue length does an incoming req see
system.mem_ctrls.wrQLenPdf::31                      0                       # What write queue length does an incoming req see
system.mem_ctrls.wrQLenPdf::32                      0                       # What write queue length does an incoming req see
system.mem_ctrls.wrQLenPdf::33                      0                       # What write queue length does an incoming req see
system.mem_ctrls.wrQLenPdf::34                      0                       # What write queue length does an incoming req see
system.mem_ctrls.wrQLenPdf::35                      0                       # What write queue length does an incoming req see
system.mem_ctrls.wrQLenPdf::36                      0                       # What write queue length does an incoming req see
system.mem_ctrls.wrQLenPdf::37                      0                       # What write queue length does an incoming req see
system.mem_ctrls.wrQLenPdf::38                      0                       # What write queue length does an incoming req see
system.mem_ctrls.wrQLenPdf::39                      0                       # What write queue length does an incoming req see
system.mem_ctrls.wrQLenPdf::40                      0                       # What write queue length does an incoming req see
system.mem_ctrls.wrQLenPdf::41                      0                       # What write queue length does an incoming req see
system.mem_ctrls.wrQLenPdf::42                      0                       # What write queue length does an incoming req see
system.mem_ctrls.wrQLenPdf::43                      0                       # What write queue length does an incoming req see
system.mem_ctrls.wrQLenPdf::44                      0                       # What write queue length does an incoming req see
system.mem_ctrls.wrQLenPdf::45                      0                       # What write queue length does an incoming req see
system.mem_ctrls.wrQLenPdf::46                      0                       # What write queue length does an incoming req see
system.mem_ctrls.wrQLenPdf::47                      0                       # What write queue length does an incoming req see
system.mem_ctrls.wrQLenPdf::48                      0                       # What write queue length does an incoming req see
system.mem_ctrls.wrQLenPdf::49                      0                       # What write queue length does an incoming req see
system.mem_ctrls.wrQLenPdf::50                      0                       # What write queue length does an incoming req see
system.mem_ctrls.wrQLenPdf::51                      0                       # What write queue length does an incoming req see
system.mem_ctrls.wrQLenPdf::52                      0                       # What write queue length does an incoming req see
system.mem_ctrls.wrQLenPdf::53                      0                       # What write queue length does an incoming req see
system.mem_ctrls.wrQLenPdf::54                      0                       # What write queue length does an incoming req see
system.mem_ctrls.wrQLenPdf::55                      0                       # What write queue length does an incoming req see
system.mem_ctrls.wrQLenPdf::56                      0                       # What write queue length does an incoming req see
system.mem_ctrls.wrQLenPdf::57                      0                       # What write queue length does an incoming req see
system.mem_ctrls.wrQLenPdf::58                      0                       # What write queue length does an incoming req see
system.mem_ctrls.wrQLenPdf::59                      0                       # What write queue length does an incoming req see
system.mem_ctrls.wrQLenPdf::60                      0                       # What write queue length does an incoming req see
system.mem_ctrls.wrQLenPdf::61                      0                       # What write queue length does an incoming req see
system.mem_ctrls.wrQLenPdf::62                      0                       # What write queue length does an incoming req see
system.mem_ctrls.wrQLenPdf::63                      0                       # What write queue length does an incoming req see
system.mem_ctrls.bytesPerActivate::samples          111                       # Bytes accessed per row activation
system.mem_ctrls.bytesPerActivate::mean    292.900901                       # Bytes accessed per row activation
system.mem_ctrls.bytesPerActivate::gmean   180.059610                       # Bytes accessed per row activation
system.mem_ctrls.bytesPerActivate::stdev   303.093714                       # Bytes accessed per row activation
system.mem_ctrls.bytesPerActivate::0-127           41     36.94%     36.94% # Bytes accessed per row activation
system.mem_ctrls.bytesPerActivate::128-255           23     20.72%     57.66% # Bytes accessed per row activation
system.mem_ctrls.bytesPerActivate::256-383           18     16.22%     73.87% # Bytes accessed per row activation
system.mem_ctrls.bytesPerActivate::384-511            5      4.50%     78.38% # Bytes accessed per row activation
system.mem_ctrls.bytesPerActivate::512-639            6      5.41%     83.78% # Bytes accessed per row activation
system.mem_ctrls.bytesPerActivate::640-767            3      2.70%     86.49% # Bytes accessed per row activation
system.mem_ctrls.bytesPerActivate::768-895            4      3.60%     90.09% # Bytes accessed per row activation
system.mem_ctrls.bytesPerActivate::896-1023            1      0.90%     90.99% # Bytes accessed per row activation
system.mem_ctrls.bytesPerActivate::1024-1151           10      9.01%    100.00% # Bytes accessed per row activation
system.mem_ctrls.bytesPerActivate::total          111                       # Bytes accessed per row activation
system.mem_ctrls.totQLat                     10842250                       # Total ticks spent queuing
system.mem_ctrls.totMemAccLat                21286000                       # Total ticks spent from burst creation until serviced by the DRAM
system.mem_ctrls.totBusLat                    2785000                       # Total ticks spent in databus transfers
system.mem_ctrls.avgQLat                     19465.44                       # Average queueing delay per DRAM burst
system.mem_ctrls.avgBusLat                    5000.00                       # Average bus latency per DRAM burst
system.mem_ctrls.avgMemAccLat                38215.44                       # Average memory access latency per DRAM burst
system.mem_ctrls.avgRdBW                         0.05                       # Average DRAM read bandwidth in MiByte/s
system.mem_ctrls.avgWrBW                         0.00                       # Average achieved write bandwidth in MiByte/s
system.mem_ctrls.avgRdBWSys                      0.05                       # Average system read bandwidth in MiByte/s
system.mem_ctrls.avgWrBWSys                      0.00                       # Average system write bandwidth in MiByte/s
system.mem_ctrls.peakBW                      12800.00                       # Theoretical peak bandwidth in MiByte/s
system.mem_ctrls.busUtil                         0.00                       # Data bus utilization in percentage
system.mem_ctrls.busUtilRead                     0.00                       # Data bus utilization in percentage for reads
system.mem_ctrls.busUtilWrite                    0.00                       # Data bus utilization in percentage for writes
system.mem_ctrls.avgRdQLen                       1.00                       # Average read queue length when enqueuing
system.mem_ctrls.avgWrQLen                       0.00                       # Average write queue length when enqueuing
system.mem_ctrls.readRowHits                      435                       # Number of row buffer hits during reads
system.mem_ctrls.writeRowHits                       0                       # Number of row buffer hits during writes
system.mem_ctrls.readRowHitRate                 78.10                       # Row buffer hit rate for reads
system.mem_ctrls.writeRowHitRate                  nan                       # Row buffer hit rate for writes
system.mem_ctrls.avgGap                  1176341620.29                       # Average gap between requests
system.mem_ctrls.pageHitRate                    78.10                       # Row buffer hit rate, read and write combined
system.mem_ctrls_0.actEnergy                   521220                       # Energy for activate commands per rank (pJ)
system.mem_ctrls_0.preEnergy                   254265                       # Energy for precharge commands per rank (pJ)
system.mem_ctrls_0.readEnergy                 2334780                       # Energy for read commands per rank (pJ)
system.mem_ctrls_0.writeEnergy                      0                       # Energy for write commands per rank (pJ)
system.mem_ctrls_0.refreshEnergy         6761040.000000                       # Energy for refresh commands per rank (pJ)
system.mem_ctrls_0.actBackEnergy              4734420                       # Energy for active background per rank (pJ)
system.mem_ctrls_0.preBackEnergy               408000                       # Energy for precharge background per rank (pJ)
system.mem_ctrls_0.actPowerDownEnergy        15378030                       # Energy for active power-down per rank (pJ)
system.mem_ctrls_0.prePowerDownEnergy         8647680                       # Energy for precharge power-down per rank (pJ)
system.mem_ctrls_0.selfRefreshEnergy     157238761620                       # Energy for self refresh per rank (pJ)
system.mem_ctrls_0.totalEnergy           157277801055                       # Total energy per rank (pJ)
system.mem_ctrls_0.averagePower            240.037317                       # Core power per rank (mW)
system.mem_ctrls_0.totalIdleTime         655210713750                       # Total Idle time Per DRAM Rank
system.mem_ctrls_0.memoryStateTime::IDLE       823000                       # Time in different power states
system.mem_ctrls_0.memoryStateTime::REF       2878000                       # Time in different power states
system.mem_ctrls_0.memoryStateTime::SREF 655154604000                       # Time in different power states
system.mem_ctrls_0.memoryStateTime::PRE_PDN     22520750                       # Time in different power states
system.mem_ctrls_0.memoryStateTime::ACT       7728500                       # Time in different power states
system.mem_ctrls_0.memoryStateTime::ACT_PDN     33737250                       # Time in different power states
system.mem_ctrls_1.actEnergy                   349860                       # Energy for activate commands per rank (pJ)
system.mem_ctrls_1.preEnergy                   166980                       # Energy for precharge commands per rank (pJ)
system.mem_ctrls_1.readEnergy                 1635060                       # Energy for read commands per rank (pJ)
system.mem_ctrls_1.writeEnergy                      0                       # Energy for write commands per rank (pJ)
system.mem_ctrls_1.refreshEnergy         3073200.000000                       # Energy for refresh commands per rank (pJ)
system.mem_ctrls_1.actBackEnergy              3128160                       # Energy for active background per rank (pJ)
system.mem_ctrls_1.preBackEnergy               279360                       # Energy for precharge background per rank (pJ)
system.mem_ctrls_1.actPowerDownEnergy         8876610                       # Energy for active power-down per rank (pJ)
system.mem_ctrls_1.prePowerDownEnergy         3227040                       # Energy for precharge power-down per rank (pJ)
system.mem_ctrls_1.selfRefreshEnergy     157245392640                       # Energy for self refresh per rank (pJ)
system.mem_ctrls_1.totalEnergy           157266128910                       # Total energy per rank (pJ)
system.mem_ctrls_1.averagePower            240.019503                       # Core power per rank (mW)
system.mem_ctrls_1.totalIdleTime         655214704000                       # Total Idle time Per DRAM Rank
system.mem_ctrls_1.memoryStateTime::IDLE       611000                       # Time in different power states
system.mem_ctrls_1.memoryStateTime::REF       1306000                       # Time in different power states
system.mem_ctrls_1.memoryStateTime::SREF 655186834500                       # Time in different power states
system.mem_ctrls_1.memoryStateTime::PRE_PDN      8402750                       # Time in different power states
system.mem_ctrls_1.memoryStateTime::ACT       5670500                       # Time in different power states
system.mem_ctrls_1.memoryStateTime::ACT_PDN     19466750                       # Time in different power states
system.pwrStateResidencyTicks::UNDEFINED 655222291500                       # Cumulative time (in ticks) in various power states
system.cpu.branchPred.lookups               264629605                       # Number of BP lookups
system.cpu.branchPred.condPredicted         174824494                       # Number of conditional branches predicted
system.cpu.branchPred.condIncorrect           6284458                       # Number of conditional branches incorrect
system.cpu.branchPred.BTBLookups            198300462                       # Number of BTB lookups
system.cpu.branchPred.BTBHits               107971905                       # Number of BTB hits
system.cpu.branchPred.BTBCorrect                    0                       # Number of correct BTB predictions (this stat may not work properly.
system.cpu.branchPred.BTBHitPct             54.448640                       # BTB Hit Percentage
system.cpu.branchPred.usedRAS                30312597                       # Number of times the RAS was used to get a target.
system.cpu.branchPred.RASInCorrect                  0                       # Number of incorrect RAS predictions.
system.cpu.branchPred.indirectLookups             106                       # Number of indirect predictor lookups.
system.cpu.branchPred.indirectHits                  1                       # Number of indirect target hits.
system.cpu.branchPred.indirectMisses              105                       # Number of indirect misses.
system.cpu.branchPredindirectMispredicted           37                       # Number of mispredicted indirect branches.
system.cpu.branchPred.atLeastOneCorrectExpert      5207252                       # Number of mispredicts where there was at least one correct not-selected scheme.
system.cpu.branchPred.allExpertsSame         87029194                       # Number of times all experts voted in the same direction.
system.cpu.branchPred.lowWeightExpertsWon       177285                       # Number of times where lower weighted experts overrode the highest weight expert.
system.cpu_voltage_domain.voltage                   1                       # Voltage in Volts
system.cpu_clk_domain.clock                       500                       # Clock period in ticks
system.cpu.dstage2_mmu.stage2_tlb.walker.pwrStateResidencyTicks::UNDEFINED 655222291500                       # Cumulative time (in ticks) in various power states
system.cpu.dstage2_mmu.stage2_tlb.walker.walks            0                       # Table walker walks requested
system.cpu.dstage2_mmu.stage2_tlb.walker.walkRequestOrigin_Requested::Data            0                       # Table walker requests started/completed, data/inst
system.cpu.dstage2_mmu.stage2_tlb.walker.walkRequestOrigin_Requested::Inst            0                       # Table walker requests started/completed, data/inst
system.cpu.dstage2_mmu.stage2_tlb.walker.walkRequestOrigin_Requested::total            0                       # Table walker requests started/completed, data/inst
system.cpu.dstage2_mmu.stage2_tlb.walker.walkRequestOrigin_Completed::Data            0                       # Table walker requests started/completed, data/inst
system.cpu.dstage2_mmu.stage2_tlb.walker.walkRequestOrigin_Completed::Inst            0                       # Table walker requests started/completed, data/inst
system.cpu.dstage2_mmu.stage2_tlb.walker.walkRequestOrigin_Completed::total            0                       # Table walker requests started/completed, data/inst
system.cpu.dstage2_mmu.stage2_tlb.walker.walkRequestOrigin::total            0                       # Table walker requests started/completed, data/inst
system.cpu.dstage2_mmu.stage2_tlb.inst_hits            0                       # ITB inst hits
system.cpu.dstage2_mmu.stage2_tlb.inst_misses            0                       # ITB inst misses
system.cpu.dstage2_mmu.stage2_tlb.read_hits            0                       # DTB read hits
system.cpu.dstage2_mmu.stage2_tlb.read_misses            0                       # DTB read misses
system.cpu.dstage2_mmu.stage2_tlb.write_hits            0                       # DTB write hits
system.cpu.dstage2_mmu.stage2_tlb.write_misses            0                       # DTB write misses
system.cpu.dstage2_mmu.stage2_tlb.flush_tlb            0                       # Number of times complete TLB was flushed
system.cpu.dstage2_mmu.stage2_tlb.flush_tlb_mva            0                       # Number of times TLB was flushed by MVA
system.cpu.dstage2_mmu.stage2_tlb.flush_tlb_mva_asid            0                       # Number of times TLB was flushed by MVA & ASID
system.cpu.dstage2_mmu.stage2_tlb.flush_tlb_asid            0                       # Number of times TLB was flushed by ASID
system.cpu.dstage2_mmu.stage2_tlb.flush_entries            0                       # Number of entries that have been flushed from TLB
system.cpu.dstage2_mmu.stage2_tlb.align_faults            0                       # Number of TLB faults due to alignment restrictions
system.cpu.dstage2_mmu.stage2_tlb.prefetch_faults            0                       # Number of TLB faults due to prefetch
system.cpu.dstage2_mmu.stage2_tlb.domain_faults            0                       # Number of TLB faults due to domain restrictions
system.cpu.dstage2_mmu.stage2_tlb.perms_faults            0                       # Number of TLB faults due to permissions restrictions
system.cpu.dstage2_mmu.stage2_tlb.read_accesses            0                       # DTB read accesses
system.cpu.dstage2_mmu.stage2_tlb.write_accesses            0                       # DTB write accesses
system.cpu.dstage2_mmu.stage2_tlb.inst_accesses            0                       # ITB inst accesses
system.cpu.dstage2_mmu.stage2_tlb.hits              0                       # DTB hits
system.cpu.dstage2_mmu.stage2_tlb.misses            0                       # DTB misses
system.cpu.dstage2_mmu.stage2_tlb.accesses            0                       # DTB accesses
system.cpu.dtb.walker.pwrStateResidencyTicks::UNDEFINED 655222291500                       # Cumulative time (in ticks) in various power states
system.cpu.dtb.walker.walks                         0                       # Table walker walks requested
system.cpu.dtb.walker.walkRequestOrigin_Requested::Data            0                       # Table walker requests started/completed, data/inst
system.cpu.dtb.walker.walkRequestOrigin_Requested::Inst            0                       # Table walker requests started/completed, data/inst
system.cpu.dtb.walker.walkRequestOrigin_Requested::total            0                       # Table walker requests started/completed, data/inst
system.cpu.dtb.walker.walkRequestOrigin_Completed::Data            0                       # Table walker requests started/completed, data/inst
system.cpu.dtb.walker.walkRequestOrigin_Completed::Inst            0                       # Table walker requests started/completed, data/inst
system.cpu.dtb.walker.walkRequestOrigin_Completed::total            0                       # Table walker requests started/completed, data/inst
system.cpu.dtb.walker.walkRequestOrigin::total            0                       # Table walker requests started/completed, data/inst
system.cpu.dtb.inst_hits                            0                       # ITB inst hits
system.cpu.dtb.inst_misses                          0                       # ITB inst misses
system.cpu.dtb.read_hits                            0                       # DTB read hits
system.cpu.dtb.read_misses                          0                       # DTB read misses
system.cpu.dtb.write_hits                           0                       # DTB write hits
system.cpu.dtb.write_misses                         0                       # DTB write misses
system.cpu.dtb.flush_tlb                            0                       # Number of times complete TLB was flushed
system.cpu.dtb.flush_tlb_mva                        0                       # Number of times TLB was flushed by MVA
system.cpu.dtb.flush_tlb_mva_asid                   0                       # Number of times TLB was flushed by MVA & ASID
system.cpu.dtb.flush_tlb_asid                       0                       # Number of times TLB was flushed by ASID
system.cpu.dtb.flush_entries                        0                       # Number of entries that have been flushed from TLB
system.cpu.dtb.align_faults                         0                       # Number of TLB faults due to alignment restrictions
system.cpu.dtb.prefetch_faults                      0                       # Number of TLB faults due to prefetch
system.cpu.dtb.domain_faults                        0                       # Number of TLB faults due to domain restrictions
system.cpu.dtb.perms_faults                         0                       # Number of TLB faults due to permissions restrictions
system.cpu.dtb.read_accesses                        0                       # DTB read accesses
system.cpu.dtb.write_accesses                       0                       # DTB write accesses
system.cpu.dtb.inst_accesses                        0                       # ITB inst accesses
system.cpu.dtb.hits                                 0                       # DTB hits
system.cpu.dtb.misses                               0                       # DTB misses
system.cpu.dtb.accesses                             0                       # DTB accesses
system.cpu.istage2_mmu.stage2_tlb.walker.pwrStateResidencyTicks::UNDEFINED 655222291500                       # Cumulative time (in ticks) in various power states
system.cpu.istage2_mmu.stage2_tlb.walker.walks            0                       # Table walker walks requested
system.cpu.istage2_mmu.stage2_tlb.walker.walkRequestOrigin_Requested::Data            0                       # Table walker requests started/completed, data/inst
system.cpu.istage2_mmu.stage2_tlb.walker.walkRequestOrigin_Requested::Inst            0                       # Table walker requests started/completed, data/inst
system.cpu.istage2_mmu.stage2_tlb.walker.walkRequestOrigin_Requested::total            0                       # Table walker requests started/completed, data/inst
system.cpu.istage2_mmu.stage2_tlb.walker.walkRequestOrigin_Completed::Data            0                       # Table walker requests started/completed, data/inst
system.cpu.istage2_mmu.stage2_tlb.walker.walkRequestOrigin_Completed::Inst            0                       # Table walker requests started/completed, data/inst
system.cpu.istage2_mmu.stage2_tlb.walker.walkRequestOrigin_Completed::total            0                       # Table walker requests started/completed, data/inst
system.cpu.istage2_mmu.stage2_tlb.walker.walkRequestOrigin::total            0                       # Table walker requests started/completed, data/inst
system.cpu.istage2_mmu.stage2_tlb.inst_hits            0                       # ITB inst hits
system.cpu.istage2_mmu.stage2_tlb.inst_misses            0                       # ITB inst misses
system.cpu.istage2_mmu.stage2_tlb.read_hits            0                       # DTB read hits
system.cpu.istage2_mmu.stage2_tlb.read_misses            0                       # DTB read misses
system.cpu.istage2_mmu.stage2_tlb.write_hits            0                       # DTB write hits
system.cpu.istage2_mmu.stage2_tlb.write_misses            0                       # DTB write misses
system.cpu.istage2_mmu.stage2_tlb.flush_tlb            0                       # Number of times complete TLB was flushed
system.cpu.istage2_mmu.stage2_tlb.flush_tlb_mva            0                       # Number of times TLB was flushed by MVA
system.cpu.istage2_mmu.stage2_tlb.flush_tlb_mva_asid            0                       # Number of times TLB was flushed by MVA & ASID
system.cpu.istage2_mmu.stage2_tlb.flush_tlb_asid            0                       # Number of times TLB was flushed by ASID
system.cpu.istage2_mmu.stage2_tlb.flush_entries            0                       # Number of entries that have been flushed from TLB
system.cpu.istage2_mmu.stage2_tlb.align_faults            0                       # Number of TLB faults due to alignment restrictions
system.cpu.istage2_mmu.stage2_tlb.prefetch_faults            0                       # Number of TLB faults due to prefetch
system.cpu.istage2_mmu.stage2_tlb.domain_faults            0                       # Number of TLB faults due to domain restrictions
system.cpu.istage2_mmu.stage2_tlb.perms_faults            0                       # Number of TLB faults due to permissions restrictions
system.cpu.istage2_mmu.stage2_tlb.read_accesses            0                       # DTB read accesses
system.cpu.istage2_mmu.stage2_tlb.write_accesses            0                       # DTB write accesses
system.cpu.istage2_mmu.stage2_tlb.inst_accesses            0                       # ITB inst accesses
system.cpu.istage2_mmu.stage2_tlb.hits              0                       # DTB hits
system.cpu.istage2_mmu.stage2_tlb.misses            0                       # DTB misses
system.cpu.istage2_mmu.stage2_tlb.accesses            0                       # DTB accesses
system.cpu.itb.walker.pwrStateResidencyTicks::UNDEFINED 655222291500                       # Cumulative time (in ticks) in various power states
system.cpu.itb.walker.walks                         0                       # Table walker walks requested
system.cpu.itb.walker.walkRequestOrigin_Requested::Data            0                       # Table walker requests started/completed, data/inst
system.cpu.itb.walker.walkRequestOrigin_Requested::Inst            0                       # Table walker requests started/completed, data/inst
system.cpu.itb.walker.walkRequestOrigin_Requested::total            0                       # Table walker requests started/completed, data/inst
system.cpu.itb.walker.walkRequestOrigin_Completed::Data            0                       # Table walker requests started/completed, data/inst
system.cpu.itb.walker.walkRequestOrigin_Completed::Inst            0                       # Table walker requests started/completed, data/inst
system.cpu.itb.walker.walkRequestOrigin_Completed::total            0                       # Table walker requests started/completed, data/inst
system.cpu.itb.walker.walkRequestOrigin::total            0                       # Table walker requests started/completed, data/inst
system.cpu.itb.inst_hits                            0                       # ITB inst hits
system.cpu.itb.inst_misses                          0                       # ITB inst misses
system.cpu.itb.read_hits                            0                       # DTB read hits
system.cpu.itb.read_misses                          0                       # DTB read misses
system.cpu.itb.write_hits                           0                       # DTB write hits
system.cpu.itb.write_misses                         0                       # DTB write misses
system.cpu.itb.flush_tlb                            0                       # Number of times complete TLB was flushed
system.cpu.itb.flush_tlb_mva                        0                       # Number of times TLB was flushed by MVA
system.cpu.itb.flush_tlb_mva_asid                   0                       # Number of times TLB was flushed by MVA & ASID
system.cpu.itb.flush_tlb_asid                       0                       # Number of times TLB was flushed by ASID
system.cpu.itb.flush_entries                        0                       # Number of entries that have been flushed from TLB
system.cpu.itb.align_faults                         0                       # Number of TLB faults due to alignment restrictions
system.cpu.itb.prefetch_faults                      0                       # Number of TLB faults due to prefetch
system.cpu.itb.domain_faults                        0                       # Number of TLB faults due to domain restrictions
system.cpu.itb.perms_faults                         0                       # Number of TLB faults due to permissions restrictions
system.cpu.itb.read_accesses                        0                       # DTB read accesses
system.cpu.itb.write_accesses                       0                       # DTB write accesses
system.cpu.itb.inst_accesses                        0                       # ITB inst accesses
system.cpu.itb.hits                                 0                       # DTB hits
system.cpu.itb.misses                               0                       # DTB misses
system.cpu.itb.accesses                             0                       # DTB accesses
system.cpu.workload.numSyscalls                    11                       # Number of system calls
system.cpu.pwrStateResidencyTicks::ON    655222291500                       # Cumulative time (in ticks) in various power states
system.cpu.numCycles                       1310444584                       # number of cpu cycles simulated
system.cpu.numWorkItemsStarted                      0                       # number of work items this cpu started
system.cpu.numWorkItemsCompleted                    0                       # number of work items this cpu completed
system.cpu.fetch.icacheStallCycles            6293462                       # Number of cycles fetch is stalled on an Icache miss
system.cpu.fetch.Insts                     1254582575                       # Number of instructions fetch has processed
system.cpu.fetch.Branches                   264629605                       # Number of branches that fetch encountered
system.cpu.fetch.predictedBranches          138284503                       # Number of branches that fetch has predicted taken
system.cpu.fetch.Cycles                    1297832766                       # Number of cycles fetch has run and was not squashing or blocked
system.cpu.fetch.SquashCycles                12571780                       # Number of cycles fetch has spent squashing
system.cpu.fetch.MiscStallCycles                  153                       # Number of cycles fetch has spent waiting on interrupts, or bad addresses, or out of MSHRs
system.cpu.fetch.IcacheWaitRetryStallCycles          438                       # Number of stall cycles due to full MSHR
system.cpu.fetch.CacheLines                 425857165                       # Number of cache lines fetched
system.cpu.fetch.IcacheSquashes                   202                       # Number of outstanding Icache misses that were squashed
system.cpu.fetch.rateDist::samples         1310412709                       # Number of instructions fetched each cycle (Total)
system.cpu.fetch.rateDist::mean              1.076969                       # Number of instructions fetched each cycle (Total)
system.cpu.fetch.rateDist::stdev             1.221494                       # Number of instructions fetched each cycle (Total)
system.cpu.fetch.rateDist::underflows               0      0.00%      0.00% # Number of instructions fetched each cycle (Total)
system.cpu.fetch.rateDist::0                631189952     48.17%     48.17% # Number of instructions fetched each cycle (Total)
system.cpu.fetch.rateDist::1                247031765     18.85%     67.02% # Number of instructions fetched each cycle (Total)
system.cpu.fetch.rateDist::2                132330494     10.10%     77.12% # Number of instructions fetched each cycle (Total)
system.cpu.fetch.rateDist::3                299860498     22.88%    100.00% # Number of instructions fetched each cycle (Total)
system.cpu.fetch.rateDist::overflows                0      0.00%    100.00% # Number of instructions fetched each cycle (Total)
system.cpu.fetch.rateDist::min_value                0                       # Number of instructions fetched each cycle (Total)
system.cpu.fetch.rateDist::max_value                3                       # Number of instructions fetched each cycle (Total)
system.cpu.fetch.rateDist::total           1310412709                       # Number of instructions fetched each cycle (Total)
system.cpu.fetch.branchRate                  0.201939                       # Number of branch fetches per cycle
system.cpu.fetch.rate                        0.957372                       # Number of inst fetches per cycle
system.cpu.decode.IdleCycles                 92060137                       # Number of cycles decode is idle
system.cpu.decode.BlockedCycles             792627061                       # Number of cycles decode is blocked
system.cpu.decode.RunCycles                 312005304                       # Number of cycles decode is running
system.cpu.decode.UnblockCycles             107434494                       # Number of cycles decode is unblocking
system.cpu.decode.SquashCycles                6285713                       # Number of cycles decode is squashing
system.cpu.decode.BranchResolved            100898107                       # Number of times decode resolved a branch
system.cpu.decode.BranchMispred                   179                       # Number of times decode detected a branch misprediction
system.cpu.decode.DecodedInsts             1203239995                       # Number of instructions handled by decode
system.cpu.decode.SquashedInsts                848074                       # Number of squashed instructions handled by decode
system.cpu.rename.SquashCycles                6285713                       # Number of cycles rename is squashing
system.cpu.rename.IdleCycles                156644909                       # Number of cycles rename is idle
system.cpu.rename.BlockCycles               201482200                       # Number of cycles rename is blocking
system.cpu.rename.serializeStallCycles      437988743                       # count of cycles rename stalled for serializing inst
system.cpu.rename.RunCycles                 352647800                       # Number of cycles rename is running
system.cpu.rename.UnblockCycles             155363344                       # Number of cycles rename is unblocking
system.cpu.rename.RenamedInsts             1186367774                       # Number of instructions processed by rename
system.cpu.rename.SquashedInsts                387172                       # Number of squashed instructions processed by rename
system.cpu.rename.ROBFullEvents             120648267                       # Number of times rename has blocked due to ROB full
system.cpu.rename.SQFullEvents                   1251                       # Number of times rename has blocked due to SQ full
system.cpu.rename.FullRegisterEvents                5                       # Number of times there has been no free registers
system.cpu.rename.RenamedOperands          1235031445                       # Number of destination operands rename has renamed
system.cpu.rename.RenameLookups            1776287507                       # Number of register rename lookups that rename has made
system.cpu.rename.int_rename_lookups       1382102190                       # Number of integer rename lookups
system.cpu.rename.vec_rename_lookups              119                       # Number of vector rename lookups
system.cpu.rename.CommittedMaps            1047263833                       # Number of HB maps that are committed
system.cpu.rename.UndoneMaps                187767612                       # Number of HB maps that are undone due to squashing
system.cpu.rename.serializingInsts           19074933                       # count of serializing insts renamed
system.cpu.rename.tempSerializingInsts       18664938                       # count of temporary serializing insts renamed
system.cpu.rename.skidInsts                 252627471                       # count of insts added to the skid buffer
system.cpu.memDep0.insertedLoads            235477992                       # Number of loads inserted to the mem dependence unit.
system.cpu.memDep0.insertedStores           176646296                       # Number of stores inserted to the mem dependence unit.
system.cpu.memDep0.conflictingLoads          28447676                       # Number of conflicting loads.
system.cpu.memDep0.conflictingStores                6                       # Number of conflicting stores.
system.cpu.iq.iqInstsAdded                 1163285767                       # Number of instructions added to the IQ (excludes non-spec)
system.cpu.iq.iqNonSpecInstsAdded            18514817                       # Number of non-speculative instructions added to the IQ
system.cpu.iq.iqInstsIssued                1152643023                       # Number of instructions issued
system.cpu.iq.iqSquashedInstsIssued           1999545                       # Number of squashed instructions issued
system.cpu.iq.iqSquashedInstsExamined       195127736                       # Number of squashed instructions iterated over during squash; mainly for profiling
system.cpu.iq.iqSquashedOperandsExamined     59992838                       # Number of squashed operands that are examined and possibly removed from graph
system.cpu.iq.iqSquashedNonSpecRemoved        1848119                       # Number of squashed non-spec instructions that were removed
system.cpu.iq.issued_per_cycle::samples    1310412709                       # Number of insts issued each cycle
system.cpu.iq.issued_per_cycle::mean         0.879603                       # Number of insts issued each cycle
system.cpu.iq.issued_per_cycle::stdev        0.971969                       # Number of insts issued each cycle
system.cpu.iq.issued_per_cycle::underflows            0      0.00%      0.00% # Number of insts issued each cycle
system.cpu.iq.issued_per_cycle::0           603741004     46.07%     46.07% # Number of insts issued each cycle
system.cpu.iq.issued_per_cycle::1           353976454     27.01%     73.09% # Number of insts issued each cycle
system.cpu.iq.issued_per_cycle::2           269773876     20.59%     93.67% # Number of insts issued each cycle
system.cpu.iq.issued_per_cycle::3            72566803      5.54%     99.21% # Number of insts issued each cycle
system.cpu.iq.issued_per_cycle::4            10354452      0.79%    100.00% # Number of insts issued each cycle
system.cpu.iq.issued_per_cycle::5                 120      0.00%    100.00% # Number of insts issued each cycle
system.cpu.iq.issued_per_cycle::6                   0      0.00%    100.00% # Number of insts issued each cycle
system.cpu.iq.issued_per_cycle::7                   0      0.00%    100.00% # Number of insts issued each cycle
system.cpu.iq.issued_per_cycle::8                   0      0.00%    100.00% # Number of insts issued each cycle
system.cpu.iq.issued_per_cycle::overflows            0      0.00%    100.00% # Number of insts issued each cycle
system.cpu.iq.issued_per_cycle::min_value            0                       # Number of insts issued each cycle
system.cpu.iq.issued_per_cycle::max_value            5                       # Number of insts issued each cycle
system.cpu.iq.issued_per_cycle::total      1310412709                       # Number of insts issued each cycle
system.cpu.iq.fu_full::No_OpClass                   0      0.00%      0.00% # attempts to use FU when none available
system.cpu.iq.fu_full::IntAlu                82628334     15.57%     15.57% # attempts to use FU when none available
system.cpu.iq.fu_full::IntMult                 588484      0.11%     15.68% # attempts to use FU when none available
system.cpu.iq.fu_full::IntDiv               327011698     61.61%     77.29% # attempts to use FU when none available
system.cpu.iq.fu_full::FloatAdd                     0      0.00%     77.29% # attempts to use FU when none available
system.cpu.iq.fu_full::FloatCmp                     0      0.00%     77.29% # attempts to use FU when none available
system.cpu.iq.fu_full::FloatCvt                     0      0.00%     77.29% # attempts to use FU when none available
system.cpu.iq.fu_full::FloatMult                    0      0.00%     77.29% # attempts to use FU when none available
system.cpu.iq.fu_full::FloatMultAcc                 0      0.00%     77.29% # attempts to use FU when none available
system.cpu.iq.fu_full::FloatDiv                     0      0.00%     77.29% # attempts to use FU when none available
system.cpu.iq.fu_full::FloatMisc                    0      0.00%     77.29% # attempts to use FU when none available
system.cpu.iq.fu_full::FloatSqrt                    0      0.00%     77.29% # attempts to use FU when none available
system.cpu.iq.fu_full::SimdAdd                      0      0.00%     77.29% # attempts to use FU when none available
system.cpu.iq.fu_full::SimdAddAcc                   0      0.00%     77.29% # attempts to use FU when none available
system.cpu.iq.fu_full::SimdAlu                      1      0.00%     77.29% # attempts to use FU when none available
system.cpu.iq.fu_full::SimdCmp                      3      0.00%     77.29% # attempts to use FU when none available
system.cpu.iq.fu_full::SimdCvt                      0      0.00%     77.29% # attempts to use FU when none available
system.cpu.iq.fu_full::SimdMisc                     0      0.00%     77.29% # attempts to use FU when none available
system.cpu.iq.fu_full::SimdMult                     0      0.00%     77.29% # attempts to use FU when none available
system.cpu.iq.fu_full::SimdMultAcc                  0      0.00%     77.29% # attempts to use FU when none available
system.cpu.iq.fu_full::SimdShift                    0      0.00%     77.29% # attempts to use FU when none available
system.cpu.iq.fu_full::SimdShiftAcc                 0      0.00%     77.29% # attempts to use FU when none available
system.cpu.iq.fu_full::SimdSqrt                     0      0.00%     77.29% # attempts to use FU when none available
system.cpu.iq.fu_full::SimdFloatAdd                 0      0.00%     77.29% # attempts to use FU when none available
system.cpu.iq.fu_full::SimdFloatAlu                 0      0.00%     77.29% # attempts to use FU when none available
system.cpu.iq.fu_full::SimdFloatCmp                 0      0.00%     77.29% # attempts to use FU when none available
system.cpu.iq.fu_full::SimdFloatCvt                 0      0.00%     77.29% # attempts to use FU when none available
system.cpu.iq.fu_full::SimdFloatDiv                 0      0.00%     77.29% # attempts to use FU when none available
system.cpu.iq.fu_full::SimdFloatMisc                0      0.00%     77.29% # attempts to use FU when none available
system.cpu.iq.fu_full::SimdFloatMult                0      0.00%     77.29% # attempts to use FU when none available
system.cpu.iq.fu_full::SimdFloatMultAcc             0      0.00%     77.29% # attempts to use FU when none available
system.cpu.iq.fu_full::SimdFloatSqrt                0      0.00%     77.29% # attempts to use FU when none available
system.cpu.iq.fu_full::MemRead               75849628     14.29%     91.58% # attempts to use FU when none available
system.cpu.iq.fu_full::MemWrite              44675667      8.42%    100.00% # attempts to use FU when none available
system.cpu.iq.fu_full::FloatMemRead                 0      0.00%    100.00% # attempts to use FU when none available
system.cpu.iq.fu_full::FloatMemWrite                0      0.00%    100.00% # attempts to use FU when none available
system.cpu.iq.fu_full::IprAccess                    0      0.00%    100.00% # attempts to use FU when none available
system.cpu.iq.fu_full::InstPrefetch                 0      0.00%    100.00% # attempts to use FU when none available
system.cpu.iq.FU_type_0::No_OpClass                 3      0.00%      0.00% # Type of FU issued
system.cpu.iq.FU_type_0::IntAlu             661920048     57.43%     57.43% # Type of FU issued
system.cpu.iq.FU_type_0::IntMult             38378607      3.33%     60.76% # Type of FU issued
system.cpu.iq.FU_type_0::IntDiv              42686217      3.70%     64.46% # Type of FU issued
system.cpu.iq.FU_type_0::FloatAdd                   0      0.00%     64.46% # Type of FU issued
system.cpu.iq.FU_type_0::FloatCmp                   0      0.00%     64.46% # Type of FU issued
system.cpu.iq.FU_type_0::FloatCvt                   0      0.00%     64.46% # Type of FU issued
system.cpu.iq.FU_type_0::FloatMult                  0      0.00%     64.46% # Type of FU issued
system.cpu.iq.FU_type_0::FloatMultAcc               0      0.00%     64.46% # Type of FU issued
system.cpu.iq.FU_type_0::FloatDiv                   0      0.00%     64.46% # Type of FU issued
system.cpu.iq.FU_type_0::FloatMisc                  0      0.00%     64.46% # Type of FU issued
system.cpu.iq.FU_type_0::FloatSqrt                  0      0.00%     64.46% # Type of FU issued
system.cpu.iq.FU_type_0::SimdAdd                   13      0.00%     64.46% # Type of FU issued
system.cpu.iq.FU_type_0::SimdAddAcc                 0      0.00%     64.46% # Type of FU issued
system.cpu.iq.FU_type_0::SimdAlu                   12      0.00%     64.46% # Type of FU issued
system.cpu.iq.FU_type_0::SimdCmp                   12      0.00%     64.46% # Type of FU issued
system.cpu.iq.FU_type_0::SimdCvt                    0      0.00%     64.46% # Type of FU issued
system.cpu.iq.FU_type_0::SimdMisc                  10      0.00%     64.46% # Type of FU issued
system.cpu.iq.FU_type_0::SimdMult                   0      0.00%     64.46% # Type of FU issued
system.cpu.iq.FU_type_0::SimdMultAcc                0      0.00%     64.46% # Type of FU issued
system.cpu.iq.FU_type_0::SimdShift                  0      0.00%     64.46% # Type of FU issued
system.cpu.iq.FU_type_0::SimdShiftAcc               0      0.00%     64.46% # Type of FU issued
system.cpu.iq.FU_type_0::SimdSqrt                   0      0.00%     64.46% # Type of FU issued
system.cpu.iq.FU_type_0::SimdFloatAdd               0      0.00%     64.46% # Type of FU issued
system.cpu.iq.FU_type_0::SimdFloatAlu               0      0.00%     64.46% # Type of FU issued
system.cpu.iq.FU_type_0::SimdFloatCmp               0      0.00%     64.46% # Type of FU issued
system.cpu.iq.FU_type_0::SimdFloatCvt               0      0.00%     64.46% # Type of FU issued
system.cpu.iq.FU_type_0::SimdFloatDiv               0      0.00%     64.46% # Type of FU issued
system.cpu.iq.FU_type_0::SimdFloatMisc              0      0.00%     64.46% # Type of FU issued
system.cpu.iq.FU_type_0::SimdFloatMult              0      0.00%     64.46% # Type of FU issued
system.cpu.iq.FU_type_0::SimdFloatMultAcc            0      0.00%     64.46% # Type of FU issued
system.cpu.iq.FU_type_0::SimdFloatSqrt              0      0.00%     64.46% # Type of FU issued
system.cpu.iq.FU_type_0::MemRead            235296391     20.41%     84.87% # Type of FU issued
system.cpu.iq.FU_type_0::MemWrite           174361710     15.13%    100.00% # Type of FU issued
system.cpu.iq.FU_type_0::FloatMemRead               0      0.00%    100.00% # Type of FU issued
system.cpu.iq.FU_type_0::FloatMemWrite              0      0.00%    100.00% # Type of FU issued
system.cpu.iq.FU_type_0::IprAccess                  0      0.00%    100.00% # Type of FU issued
system.cpu.iq.FU_type_0::InstPrefetch               0      0.00%    100.00% # Type of FU issued
system.cpu.iq.FU_type_0::total             1152643023                       # Type of FU issued
system.cpu.iq.rate                           0.879582                       # Inst issue rate
system.cpu.iq.fu_busy_cnt                   530753815                       # FU busy when requested
system.cpu.iq.fu_busy_rate                   0.460467                       # FU busy rate (busy events/executed inst)
system.cpu.iq.int_inst_queue_reads         4148451913                       # Number of integer instruction queue reads
system.cpu.iq.int_inst_queue_writes        1376929639                       # Number of integer instruction queue writes
system.cpu.iq.int_inst_queue_wakeup_accesses   1143575042                       # Number of integer instruction queue wakeup accesses
system.cpu.iq.fp_inst_queue_reads                   0                       # Number of floating instruction queue reads
system.cpu.iq.fp_inst_queue_writes                  0                       # Number of floating instruction queue writes
system.cpu.iq.fp_inst_queue_wakeup_accesses            0                       # Number of floating instruction queue wakeup accesses
system.cpu.iq.int_alu_accesses             1683396724                       # Number of integer alu accesses
system.cpu.iq.fp_alu_accesses                       0                       # Number of floating point alu accesses
system.cpu.iew.lsq.thread0.forwLoads         28776665                       # Number of loads that had data forwarded from stores
system.cpu.iew.lsq.thread0.invAddrLoads             0                       # Number of loads ignored due to an invalid address
system.cpu.iew.lsq.thread0.squashedLoads     28810509                       # Number of loads squashed
system.cpu.iew.lsq.thread0.ignoredResponses           58                       # Number of memory responses ignored because the instruction is squashed
system.cpu.iew.lsq.thread0.memOrderViolation         1421                       # Number of memory ordering violations
system.cpu.iew.lsq.thread0.squashedStores     44978477                       # Number of stores squashed
system.cpu.iew.lsq.thread0.invAddrSwpfs             0                       # Number of software prefetches ignored due to an invalid address
system.cpu.iew.lsq.thread0.blockedLoads             0                       # Number of blocked loads due to partial load-store forwarding
system.cpu.iew.lsq.thread0.rescheduledLoads           11                       # Number of loads that were rescheduled
system.cpu.iew.lsq.thread0.cacheBlocked            50                       # Number of times an access to memory failed due to the cache being blocked
system.cpu.iew.iewIdleCycles                        0                       # Number of cycles IEW is idle
system.cpu.iew.iewSquashCycles                6285713                       # Number of cycles IEW is squashing
system.cpu.iew.iewBlockCycles                20745780                       # Number of cycles IEW is blocking
system.cpu.iew.iewUnblockCycles                    37                       # Number of cycles IEW is unblocking
system.cpu.iew.iewDispatchedInsts          1181800638                       # Number of instructions dispatched to IQ
system.cpu.iew.iewDispSquashedInsts                 0                       # Number of squashed instructions skipped by dispatch
system.cpu.iew.iewDispLoadInsts             235477992                       # Number of dispatched load instructions
system.cpu.iew.iewDispStoreInsts            176646296                       # Number of dispatched store instructions
system.cpu.iew.iewDispNonSpecInsts           18514816                       # Number of dispatched non-speculative instructions
system.cpu.iew.iewIQFullEvents                      0                       # Number of times the IQ has become full, causing a stall
system.cpu.iew.iewLSQFullEvents                    37                       # Number of times the LSQ has become full, causing a stall
system.cpu.iew.memOrderViolationEvents           1421                       # Number of memory order violations
system.cpu.iew.predictedTakenIncorrect        3018062                       # Number of branches that were predicted taken incorrectly
system.cpu.iew.predictedNotTakenIncorrect      3266301                       # Number of branches that were predicted not taken incorrectly
system.cpu.iew.branchMispredicts              6284363                       # Number of branch mispredicts detected at execute
system.cpu.iew.iewExecutedInsts            1145759242                       # Number of executed instructions
system.cpu.iew.iewExecLoadInsts             234474337                       # Number of load instructions executed
system.cpu.iew.iewExecSquashedInsts           6883781                       # Number of squashed instructions skipped in execute
system.cpu.iew.exec_swp                             0                       # number of swp insts executed
system.cpu.iew.exec_nop                            54                       # number of nop insts executed
system.cpu.iew.exec_refs                    408552565                       # number of memory reference insts executed
system.cpu.iew.exec_branches                209164293                       # Number of branches executed
system.cpu.iew.exec_stores                  174078228                       # Number of stores executed
system.cpu.iew.exec_rate                     0.874329                       # Inst execution rate
system.cpu.iew.wb_sent                     1143575294                       # cumulative count of insts sent to commit
system.cpu.iew.wb_count                    1143575123                       # cumulative count of insts written-back
system.cpu.iew.wb_producers                 645921077                       # num instructions producing a value
system.cpu.iew.wb_consumers                1067194146                       # num instructions consuming a value
system.cpu.iew.wb_rate                       0.872662                       # insts written-back per cycle
system.cpu.iew.wb_fanout                     0.605252                       # average fanout of values written-back
system.cpu.commit.commitSquashedInsts       190436347                       # The number of squashed insts skipped by commit
system.cpu.commit.commitNonSpecStalls        16666698                       # The number of times commit has been forced to stall to communicate backwards
system.cpu.commit.branchMispredicts           6284281                       # The number of times a branch was mispredicted
system.cpu.commit.committed_per_cycle::samples   1283381216                       # Number of insts commited each cycle
system.cpu.commit.committed_per_cycle::mean     0.768807                       # Number of insts commited each cycle
system.cpu.commit.committed_per_cycle::stdev     1.528200                       # Number of insts commited each cycle
system.cpu.commit.committed_per_cycle::underflows            0      0.00%      0.00% # Number of insts commited each cycle
system.cpu.commit.committed_per_cycle::0    802940974     62.56%     62.56% # Number of insts commited each cycle
system.cpu.commit.committed_per_cycle::1    293547175     22.87%     85.44% # Number of insts commited each cycle
system.cpu.commit.committed_per_cycle::2     92179631      7.18%     92.62% # Number of insts commited each cycle
system.cpu.commit.committed_per_cycle::3     21439235      1.67%     94.29% # Number of insts commited each cycle
system.cpu.commit.committed_per_cycle::4     18347698      1.43%     95.72% # Number of insts commited each cycle
system.cpu.commit.committed_per_cycle::5     17334965      1.35%     97.07% # Number of insts commited each cycle
system.cpu.commit.committed_per_cycle::6      6493429      0.51%     97.58% # Number of insts commited each cycle
system.cpu.commit.committed_per_cycle::7      3362357      0.26%     97.84% # Number of insts commited each cycle
system.cpu.commit.committed_per_cycle::8     27735752      2.16%    100.00% # Number of insts commited each cycle
system.cpu.commit.committed_per_cycle::overflows            0      0.00%    100.00% # Number of insts commited each cycle
system.cpu.commit.committed_per_cycle::min_value            0                       # Number of insts commited each cycle
system.cpu.commit.committed_per_cycle::max_value            8                       # Number of insts commited each cycle
system.cpu.commit.committed_per_cycle::total   1283381216                       # Number of insts commited each cycle
system.cpu.commit.committedInsts            886671696                       # Number of instructions committed
system.cpu.commit.committedOps              986672848                       # Number of ops (including micro ops) committed
system.cpu.commit.swp_count                         0                       # Number of s/w prefetches committed
system.cpu.commit.refs                      338335302                       # Number of memory references committed
system.cpu.commit.loads                     206667483                       # Number of loads committed
system.cpu.commit.membars                    16666686                       # Number of memory barriers committed
system.cpu.commit.branches                  185269931                       # Number of branches committed
system.cpu.commit.vec_insts                        80                       # Number of committed Vector instructions.
system.cpu.commit.fp_insts                          0                       # Number of committed floating point instructions.
system.cpu.commit.int_insts                 876403422                       # Number of committed integer instructions.
system.cpu.commit.function_calls             25000100                       # Number of function calls committed.
system.cpu.commit.op_class_0::No_OpClass            3      0.00%      0.00% # Class of committed instruction
system.cpu.commit.op_class_0::IntAlu        571670821     57.94%     57.94% # Class of committed instruction
system.cpu.commit.op_class_0::IntMult        38333338      3.89%     61.82% # Class of committed instruction
system.cpu.commit.op_class_0::IntDiv         38333337      3.89%     65.71% # Class of committed instruction
system.cpu.commit.op_class_0::FloatAdd              0      0.00%     65.71% # Class of committed instruction
system.cpu.commit.op_class_0::FloatCmp              0      0.00%     65.71% # Class of committed instruction
system.cpu.commit.op_class_0::FloatCvt              0      0.00%     65.71% # Class of committed instruction
system.cpu.commit.op_class_0::FloatMult             0      0.00%     65.71% # Class of committed instruction
system.cpu.commit.op_class_0::FloatMultAcc            0      0.00%     65.71% # Class of committed instruction
system.cpu.commit.op_class_0::FloatDiv              0      0.00%     65.71% # Class of committed instruction
system.cpu.commit.op_class_0::FloatMisc             0      0.00%     65.71% # Class of committed instruction
system.cpu.commit.op_class_0::FloatSqrt             0      0.00%     65.71% # Class of committed instruction
system.cpu.commit.op_class_0::SimdAdd              13      0.00%     65.71% # Class of committed instruction
system.cpu.commit.op_class_0::SimdAddAcc            0      0.00%     65.71% # Class of committed instruction
system.cpu.commit.op_class_0::SimdAlu              12      0.00%     65.71% # Class of committed instruction
system.cpu.commit.op_class_0::SimdCmp              12      0.00%     65.71% # Class of committed instruction
system.cpu.commit.op_class_0::SimdCvt               0      0.00%     65.71% # Class of committed instruction
system.cpu.commit.op_class_0::SimdMisc             10      0.00%     65.71% # Class of committed instruction
system.cpu.commit.op_class_0::SimdMult              0      0.00%     65.71% # Class of committed instruction
system.cpu.commit.op_class_0::SimdMultAcc            0      0.00%     65.71% # Class of committed instruction
system.cpu.commit.op_class_0::SimdShift             0      0.00%     65.71% # Class of committed instruction
system.cpu.commit.op_class_0::SimdShiftAcc            0      0.00%     65.71% # Class of committed instruction
system.cpu.commit.op_class_0::SimdSqrt              0      0.00%     65.71% # Class of committed instruction
system.cpu.commit.op_class_0::SimdFloatAdd            0      0.00%     65.71% # Class of committed instruction
system.cpu.commit.op_class_0::SimdFloatAlu            0      0.00%     65.71% # Class of committed instruction
system.cpu.commit.op_class_0::SimdFloatCmp            0      0.00%     65.71% # Class of committed instruction
system.cpu.commit.op_class_0::SimdFloatCvt            0      0.00%     65.71% # Class of committed instruction
system.cpu.commit.op_class_0::SimdFloatDiv            0      0.00%     65.71% # Class of committed instruction
system.cpu.commit.op_class_0::SimdFloatMisc            0      0.00%     65.71% # Class of committed instruction
system.cpu.commit.op_class_0::SimdFloatMult            0      0.00%     65.71% # Class of committed instruction
system.cpu.commit.op_class_0::SimdFloatMultAcc            0      0.00%     65.71% # Class of committed instruction
[...]
system.l2.ReadCleanReq_miss_rate::cpu.inst     0.988732                       # miss rate for ReadCleanReq accesses
system.l2.ReadCleanReq_miss_rate::total      0.988732                       # miss rate for ReadCleanReq accesses
system.l2.ReadSharedReq_miss_rate::cpu.data     0.959596                       # miss rate for ReadSharedReq accesses
system.l2.ReadSharedReq_miss_rate::total     0.959596                       # miss rate for ReadSharedReq accesses
system.l2.demand_miss_rate::cpu.inst         0.988732                       # miss rate for demand accesses
system.l2.demand_miss_rate::cpu.data         0.855000                       # miss rate for demand accesses
system.l2.demand_miss_rate::total            0.940541                       # miss rate for demand accesses
system.l2.overall_miss_rate::cpu.inst        0.988732                       # miss rate for overall accesses
system.l2.overall_miss_rate::cpu.data        0.855000                       # miss rate for overall accesses
system.l2.overall_miss_rate::total           0.940541                       # miss rate for overall accesses
system.l2.ReadExReq_avg_miss_latency::cpu.data 81611.842105                       # average ReadExReq miss latency
system.l2.ReadExReq_avg_miss_latency::total 81611.842105                       # average ReadExReq miss latency
system.l2.ReadCleanReq_avg_miss_latency::cpu.inst 80727.920228                       # average ReadCleanReq miss latency
system.l2.ReadCleanReq_avg_miss_latency::total 80727.920228                       # average ReadCleanReq miss latency
system.l2.ReadSharedReq_avg_miss_latency::cpu.data 81710.526316                       # average ReadSharedReq miss latency
system.l2.ReadSharedReq_avg_miss_latency::total 81710.526316                       # average ReadSharedReq miss latency
system.l2.demand_avg_miss_latency::cpu.inst 80727.920228                       # average overall miss latency
system.l2.demand_avg_miss_latency::cpu.data 81666.666667                       # average overall miss latency
system.l2.demand_avg_miss_latency::total 81035.440613                       # average overall miss latency
system.l2.overall_avg_miss_latency::cpu.inst 80727.920228                       # average overall miss latency
system.l2.overall_avg_miss_latency::cpu.data 81666.666667                       # average overall miss latency
system.l2.overall_avg_miss_latency::total 81035.440613                       # average overall miss latency
system.l2.blocked_cycles::no_mshrs                  0                       # number of cycles access was blocked
system.l2.blocked_cycles::no_targets                0                       # number of cycles access was blocked
system.l2.blocked::no_mshrs                         0                       # number of cycles access was blocked
system.l2.blocked::no_targets                       0                       # number of cycles access was blocked
system.l2.avg_blocked_cycles::no_mshrs            nan                       # average number of cycles each access was blocked
system.l2.avg_blocked_cycles::no_targets          nan                       # average number of cycles each access was blocked
system.l2.ReadExReq_mshr_hits::cpu.data             1                       # number of ReadExReq MSHR hits
system.l2.ReadExReq_mshr_hits::total                1                       # number of ReadExReq MSHR hits
system.l2.ReadSharedReq_mshr_hits::cpu.data            4                       # number of ReadSharedReq MSHR hits
system.l2.ReadSharedReq_mshr_hits::total            4                       # number of ReadSharedReq MSHR hits
system.l2.demand_mshr_hits::cpu.data                5                       # number of demand (read+write) MSHR hits
system.l2.demand_mshr_hits::total                   5                       # number of demand (read+write) MSHR hits
system.l2.overall_mshr_hits::cpu.data               5                       # number of overall MSHR hits
system.l2.overall_mshr_hits::total                  5                       # number of overall MSHR hits
system.l2.HardPFReq_mshr_misses::l2.prefetcher           61                       # number of HardPFReq MSHR misses
system.l2.HardPFReq_mshr_misses::total             61                       # number of HardPFReq MSHR misses
system.l2.ReadExReq_mshr_misses::cpu.data           75                       # number of ReadExReq MSHR misses
system.l2.ReadExReq_mshr_misses::total             75                       # number of ReadExReq MSHR misses
system.l2.ReadCleanReq_mshr_misses::cpu.inst          351                       # number of ReadCleanReq MSHR misses
system.l2.ReadCleanReq_mshr_misses::total          351                       # number of ReadCleanReq MSHR misses
system.l2.ReadSharedReq_mshr_misses::cpu.data           91                       # number of ReadSharedReq MSHR misses
system.l2.ReadSharedReq_mshr_misses::total           91                       # number of ReadSharedReq MSHR misses
system.l2.demand_mshr_misses::cpu.inst            351                       # number of demand (read+write) MSHR misses
system.l2.demand_mshr_misses::cpu.data            166                       # number of demand (read+write) MSHR misses
system.l2.demand_mshr_misses::total               517                       # number of demand (read+write) MSHR misses
system.l2.overall_mshr_misses::cpu.inst           351                       # number of overall MSHR misses
system.l2.overall_mshr_misses::cpu.data           166                       # number of overall MSHR misses
system.l2.overall_mshr_misses::l2.prefetcher           61                       # number of overall MSHR misses
system.l2.overall_mshr_misses::total              578                       # number of overall MSHR misses
system.l2.HardPFReq_mshr_miss_latency::l2.prefetcher      2774345                       # number of HardPFReq MSHR miss cycles
system.l2.HardPFReq_mshr_miss_latency::total      2774345                       # number of HardPFReq MSHR miss cycles
system.l2.ReadExReq_mshr_miss_latency::cpu.data      5737000                       # number of ReadExReq MSHR miss cycles
system.l2.ReadExReq_mshr_miss_latency::total      5737000                       # number of ReadExReq MSHR miss cycles
system.l2.ReadCleanReq_mshr_miss_latency::cpu.inst     26235500                       # number of ReadCleanReq MSHR miss cycles
system.l2.ReadCleanReq_mshr_miss_latency::total     26235500                       # number of ReadCleanReq MSHR miss cycles
system.l2.ReadSharedReq_mshr_miss_latency::cpu.data      6963000                       # number of ReadSharedReq MSHR miss cycles
system.l2.ReadSharedReq_mshr_miss_latency::total      6963000                       # number of ReadSharedReq MSHR miss cycles
system.l2.demand_mshr_miss_latency::cpu.inst     26235500                       # number of demand (read+write) MSHR miss cycles
system.l2.demand_mshr_miss_latency::cpu.data     12700000                       # number of demand (read+write) MSHR miss cycles
system.l2.demand_mshr_miss_latency::total     38935500                       # number of demand (read+write) MSHR miss cycles
system.l2.overall_mshr_miss_latency::cpu.inst     26235500                       # number of overall MSHR miss cycles
system.l2.overall_mshr_miss_latency::cpu.data     12700000                       # number of overall MSHR miss cycles
system.l2.overall_mshr_miss_latency::l2.prefetcher      2774345                       # number of overall MSHR miss cycles
system.l2.overall_mshr_miss_latency::total     41709845                       # number of overall MSHR miss cycles
system.l2.HardPFReq_mshr_miss_rate::l2.prefetcher          inf                       # mshr miss rate for HardPFReq accesses
system.l2.HardPFReq_mshr_miss_rate::total          inf                       # mshr miss rate for HardPFReq accesses
system.l2.ReadExReq_mshr_miss_rate::cpu.data     0.742574                       # mshr miss rate for ReadExReq accesses
system.l2.ReadExReq_mshr_miss_rate::total     0.742574                       # mshr miss rate for ReadExReq accesses
system.l2.ReadCleanReq_mshr_miss_rate::cpu.inst     0.988732                       # mshr miss rate for ReadCleanReq accesses
system.l2.ReadCleanReq_mshr_miss_rate::total     0.988732                       # mshr miss rate for ReadCleanReq accesses
system.l2.ReadSharedReq_mshr_miss_rate::cpu.data     0.919192                       # mshr miss rate for ReadSharedReq accesses
system.l2.ReadSharedReq_mshr_miss_rate::total     0.919192                       # mshr miss rate for ReadSharedReq accesses
system.l2.demand_mshr_miss_rate::cpu.inst     0.988732                       # mshr miss rate for demand accesses
system.l2.demand_mshr_miss_rate::cpu.data     0.830000                       # mshr miss rate for demand accesses
system.l2.demand_mshr_miss_rate::total       0.931532                       # mshr miss rate for demand accesses
system.l2.overall_mshr_miss_rate::cpu.inst     0.988732                       # mshr miss rate for overall accesses
system.l2.overall_mshr_miss_rate::cpu.data     0.830000                       # mshr miss rate for overall accesses
system.l2.overall_mshr_miss_rate::l2.prefetcher          inf                       # mshr miss rate for overall accesses
system.l2.overall_mshr_miss_rate::total      1.041441                       # mshr miss rate for overall accesses
system.l2.HardPFReq_avg_mshr_miss_latency::l2.prefetcher 45481.065574                       # average HardPFReq mshr miss latency
system.l2.HardPFReq_avg_mshr_miss_latency::total 45481.065574                       # average HardPFReq mshr miss latency
system.l2.ReadExReq_avg_mshr_miss_latency::cpu.data 76493.333333                       # average ReadExReq mshr miss latency
system.l2.ReadExReq_avg_mshr_miss_latency::total 76493.333333                       # average ReadExReq mshr miss latency
system.l2.ReadCleanReq_avg_mshr_miss_latency::cpu.inst 74745.014245                       # average ReadCleanReq mshr miss latency
system.l2.ReadCleanReq_avg_mshr_miss_latency::total 74745.014245                       # average ReadCleanReq mshr miss latency
system.l2.ReadSharedReq_avg_mshr_miss_latency::cpu.data 76516.483516                       # average ReadSharedReq mshr miss latency
system.l2.ReadSharedReq_avg_mshr_miss_latency::total 76516.483516                       # average ReadSharedReq mshr miss latency
system.l2.demand_avg_mshr_miss_latency::cpu.inst 74745.014245                       # average overall mshr miss latency
system.l2.demand_avg_mshr_miss_latency::cpu.data 76506.024096                       # average overall mshr miss latency
system.l2.demand_avg_mshr_miss_latency::total 75310.444874                       # average overall mshr miss latency
system.l2.overall_avg_mshr_miss_latency::cpu.inst 74745.014245                       # average overall mshr miss latency
system.l2.overall_avg_mshr_miss_latency::cpu.data 76506.024096                       # average overall mshr miss latency
system.l2.overall_avg_mshr_miss_latency::l2.prefetcher 45481.065574                       # average overall mshr miss latency
system.l2.overall_avg_mshr_miss_latency::total 72162.361592                       # average overall mshr miss latency
system.membus.snoop_filter.tot_requests           557                       # Total number of requests made to the snoop filter.
system.membus.snoop_filter.hit_single_requests           14                       # Number of requests hitting in the snoop filter with a single holder of the requested data.
system.membus.snoop_filter.hit_multi_requests            0                       # Number of requests hitting in the snoop filter with multiple (>1) holders of the requested data.
system.membus.snoop_filter.tot_snoops               0                       # Total number of snoops made to the snoop filter.
system.membus.snoop_filter.hit_single_snoops            0                       # Number of snoops hitting in the snoop filter with a single holder of the requested data.
system.membus.snoop_filter.hit_multi_snoops            0                       # Number of snoops hitting in the snoop filter with multiple (>1) holders of the requested data.
system.membus.pwrStateResidencyTicks::UNDEFINED 655222291500                       # Cumulative time (in ticks) in various power states
system.membus.trans_dist::ReadResp                481                       # Transaction distribution
system.membus.trans_dist::ReadExReq                75                       # Transaction distribution
system.membus.trans_dist::ReadExResp               75                       # Transaction distribution
system.membus.trans_dist::ReadSharedReq           482                       # Transaction distribution
system.membus.pkt_count_system.l2.mem_side::system.mem_ctrls.port         1113                       # Packet count per connected master and slave (bytes)
system.membus.pkt_count::total                   1113                       # Packet count per connected master and slave (bytes)
system.membus.pkt_size_system.l2.mem_side::system.mem_ctrls.port        35584                       # Cumulative packet size per connected master and slave (bytes)
system.membus.pkt_size::total                   35584                       # Cumulative packet size per connected master and slave (bytes)
system.membus.snoops                                0                       # Total snoops (count)
system.membus.snoopTraffic                          0                       # Total snoop traffic (bytes)
system.membus.snoop_fanout::samples               557                       # Request fanout histogram
system.membus.snoop_fanout::mean                    0                       # Request fanout histogram
system.membus.snoop_fanout::stdev                   0                       # Request fanout histogram
system.membus.snoop_fanout::underflows              0      0.00%      0.00% # Request fanout histogram
system.membus.snoop_fanout::0                     557    100.00%    100.00% # Request fanout histogram
system.membus.snoop_fanout::1                       0      0.00%    100.00% # Request fanout histogram
system.membus.snoop_fanout::overflows               0      0.00%    100.00% # Request fanout histogram
system.membus.snoop_fanout::min_value               0                       # Request fanout histogram
system.membus.snoop_fanout::max_value               0                       # Request fanout histogram
system.membus.snoop_fanout::total                 557                       # Request fanout histogram
system.membus.reqLayer0.occupancy              686867                       # Layer occupancy (ticks)
system.membus.reqLayer0.utilization               0.0                       # Layer utilization (%)
system.membus.respLayer1.occupancy            2948750                       # Layer occupancy (ticks)
system.membus.respLayer1.utilization              0.0                       # Layer utilization (%)
system.tol2bus.snoop_filter.tot_requests          614                       # Total number of requests made to the snoop filter.
system.tol2bus.snoop_filter.hit_single_requests           72                       # Number of requests hitting in the snoop filter with a single holder of the requested data.
system.tol2bus.snoop_filter.hit_multi_requests            2                       # Number of requests hitting in the snoop filter with multiple (>1) holders of the requested data.
system.tol2bus.snoop_filter.tot_snoops             21                       # Total number of snoops made to the snoop filter.
system.tol2bus.snoop_filter.hit_single_snoops           21                       # Number of snoops hitting in the snoop filter with a single holder of the requested data.
system.tol2bus.snoop_filter.hit_multi_snoops            0                       # Number of snoops hitting in the snoop filter with multiple (>1) holders of the requested data.
system.tol2bus.pwrStateResidencyTicks::UNDEFINED 655222291500                       # Cumulative time (in ticks) in various power states
system.tol2bus.trans_dist::ReadResp               453                       # Transaction distribution
system.tol2bus.trans_dist::WritebackClean           59                       # Transaction distribution
system.tol2bus.trans_dist::HardPFReq               79                       # Transaction distribution
system.tol2bus.trans_dist::ReadExReq              101                       # Transaction distribution
system.tol2bus.trans_dist::ReadExResp             101                       # Transaction distribution
system.tol2bus.trans_dist::ReadCleanReq           355                       # Transaction distribution
system.tol2bus.trans_dist::ReadSharedReq           99                       # Transaction distribution
system.tol2bus.pkt_count_system.cpu.icache.mem_side::system.l2.cpu_side          767                       # Packet count per connected master and slave (bytes)
system.tol2bus.pkt_count_system.cpu.dcache.mem_side::system.l2.cpu_side          401                       # Packet count per connected master and slave (bytes)
system.tol2bus.pkt_count::total                  1168                       # Packet count per connected master and slave (bytes)
system.tol2bus.pkt_size_system.cpu.icache.mem_side::system.l2.cpu_side        26368                       # Cumulative packet size per connected master and slave (bytes)
system.tol2bus.pkt_size_system.cpu.dcache.mem_side::system.l2.cpu_side        12864                       # Cumulative packet size per connected master and slave (bytes)
system.tol2bus.pkt_size::total                  39232                       # Cumulative packet size per connected master and slave (bytes)
system.tol2bus.snoops                              79                       # Total snoops (count)
system.tol2bus.snoopTraffic                         0                       # Total snoop traffic (bytes)
system.tol2bus.snoop_fanout::samples              634                       # Request fanout histogram
system.tol2bus.snoop_fanout::mean            0.056782                       # Request fanout histogram
system.tol2bus.snoop_fanout::stdev           0.231609                       # Request fanout histogram
system.tol2bus.snoop_fanout::underflows             0      0.00%      0.00% # Request fanout histogram
system.tol2bus.snoop_fanout::0                    598     94.32%     94.32% # Request fanout histogram
system.tol2bus.snoop_fanout::1                     36      5.68%    100.00% # Request fanout histogram
system.tol2bus.snoop_fanout::2                      0      0.00%    100.00% # Request fanout histogram
system.tol2bus.snoop_fanout::3                      0      0.00%    100.00% # Request fanout histogram
system.tol2bus.snoop_fanout::4                      0      0.00%    100.00% # Request fanout histogram
system.tol2bus.snoop_fanout::overflows              0      0.00%    100.00% # Request fanout histogram
system.tol2bus.snoop_fanout::min_value              0                       # Request fanout histogram
system.tol2bus.snoop_fanout::max_value              1                       # Request fanout histogram
system.tol2bus.snoop_fanout::total                634                       # Request fanout histogram
system.tol2bus.reqLayer0.occupancy             366000                       # Layer occupancy (ticks)
system.tol2bus.reqLayer0.utilization              0.0                       # Layer utilization (%)
system.tol2bus.respLayer0.occupancy            531000                       # Layer occupancy (ticks)
system.tol2bus.respLayer0.utilization             0.0                       # Layer utilization (%)
system.tol2bus.respLayer1.occupancy            300499                       # Layer occupancy (ticks)
system.tol2bus.respLayer1.utilization             0.0                       # Layer utilization (%)

---------- End Simulation Statistics   ----------
