
---------- Begin Simulation Statistics ----------
sim_seconds                                  0.110447                       # Number of seconds simulated
sim_ticks                                110447013000                       # Number of ticks simulated
final_tick                               110447013000                       # Number of ticks from beginning of simulation (restored from checkpoints and never reset)
sim_freq                                 1000000000000                       # Frequency of simulated ticks
host_inst_rate                                 368610                       # Simulator instruction rate (inst/s)
host_op_rate                                   368620                       # Simulator op (including micro ops) rate (op/s)
host_tick_rate                               99878230                       # Simulator tick rate (ticks/s)
host_mem_usage                                 680576                       # Number of bytes of host memory used
host_seconds                                  1105.82                       # Real time elapsed on the host
sim_insts                                   407614921                       # Number of instructions simulated
sim_ops                                     407626381                       # Number of ops (including micro ops) simulated
system.voltage_domain.voltage                       1                       # Voltage in Volts
system.clk_domain.clock                          1000                       # Clock period in ticks
system.mem_ctrls.pwrStateResidencyTicks::UNDEFINED 110447013000                       # Cumulative time (in ticks) in various power states
system.mem_ctrls.bytes_read::cpu.inst           25536                       # Number of bytes read from this memory
system.mem_ctrls.bytes_read::cpu.data           11840                       # Number of bytes read from this memory
system.mem_ctrls.bytes_read::l2.prefetcher         5888                       # Number of bytes read from this memory
system.mem_ctrls.bytes_read::total              43264                       # Number of bytes read from this memory
system.mem_ctrls.bytes_inst_read::cpu.inst        25536                       # Number of instructions bytes read from this memory
system.mem_ctrls.bytes_inst_read::total         25536                       # Number of instructions bytes read from this memory
system.mem_ctrls.num_reads::cpu.inst              399                       # Number of read requests responded to by this memory
system.mem_ctrls.num_reads::cpu.data              185                       # Number of read requests responded to by this memory
system.mem_ctrls.num_reads::l2.prefetcher           92                       # Number of read requests responded to by this memory
system.mem_ctrls.num_reads::total                 676                       # Number of read requests responded to by this memory
system.mem_ctrls.bw_read::cpu.inst             231206                       # Total read bandwidth from this memory (bytes/s)
system.mem_ctrls.bw_read::cpu.data             107201                       # Total read bandwidth from this memory (bytes/s)
system.mem_ctrls.bw_read::l2.prefetcher         53311                       # Total read bandwidth from this memory (bytes/s)
system.mem_ctrls.bw_read::total                391717                       # Total read bandwidth from this memory (bytes/s)
system.mem_ctrls.bw_inst_read::cpu.inst        231206                       # Instruction read bandwidth from this memory (bytes/s)
system.mem_ctrls.bw_inst_read::total           231206                       # Instruction read bandwidth from this memory (bytes/s)
system.mem_ctrls.bw_total::cpu.inst            231206                       # Total bandwidth to/from this memory (bytes/s)
system.mem_ctrls.bw_total::cpu.data            107201                       # Total bandwidth to/from this memory (bytes/s)
system.mem_ctrls.bw_total::l2.prefetcher        53311                       # Total bandwidth to/from this memory (bytes/s)
system.mem_ctrls.bw_total::total               391717                       # Total bandwidth to/from this memory (bytes/s)
system.mem_ctrls.readReqs                         676                       # Number of read requests accepted
system.mem_ctrls.writeReqs                          0                       # Number of write requests accepted
system.mem_ctrls.readBursts                       676                       # Number of DRAM read bursts, including those serviced by the write queue
system.mem_ctrls.writeBursts                        0                       # Number of DRAM write bursts, including those merged in the write queue
system.mem_ctrls.bytesReadDRAM                  43264                       # Total number of bytes read from DRAM
system.mem_ctrls.bytesReadWrQ                       0                       # Total number of bytes read from write queue
system.mem_ctrls.bytesWritten                       0                       # Total number of bytes written to DRAM
system.mem_ctrls.bytesReadSys                   43264                       # Total read bytes from the system interface side
system.mem_ctrls.bytesWrittenSys                    0                       # Total written bytes from the system interface side
system.mem_ctrls.servicedByWrQ                      0                       # Number of DRAM read bursts serviced by the write queue
system.mem_ctrls.mergedWrBursts                     0                       # Number of DRAM write bursts merged with an existing one
system.mem_ctrls.neitherReadNorWriteReqs            0                       # Number of requests that are neither read nor write
system.mem_ctrls.perBankRdBursts::0               161                       # Per bank write bursts
system.mem_ctrls.perBankRdBursts::1                25                       # Per bank write bursts
system.mem_ctrls.perBankRdBursts::2                10                       # Per bank write bursts
system.mem_ctrls.perBankRdBursts::3                71                       # Per bank write bursts
system.mem_ctrls.perBankRdBursts::4                19                       # Per bank write bursts
system.mem_ctrls.perBankRdBursts::5                27                       # Per bank write bursts
system.mem_ctrls.perBankRdBursts::6                26                       # Per bank write bursts
system.mem_ctrls.perBankRdBursts::7                75                       # Per bank write bursts
system.mem_ctrls.perBankRdBursts::8                25                       # Per bank write bursts
system.mem_ctrls.perBankRdBursts::9                25                       # Per bank write bursts
system.mem_ctrls.perBankRdBursts::10               17                       # Per bank write bursts
system.mem_ctrls.perBankRdBursts::11               17                       # Per bank write bursts
system.mem_ctrls.perBankRdBursts::12               42                       # Per bank write bursts
system.mem_ctrls.perBankRdBursts::13               63                       # Per bank write bursts
system.mem_ctrls.perBankRdBursts::14               25                       # Per bank write bursts
system.mem_ctrls.perBankRdBursts::15               48                       # Per bank write bursts
system.mem_ctrls.perBankWrBursts::0                 0                       # Per bank write bursts
system.mem_ctrls.perBankWrBursts::1                 0                       # Per bank write bursts
system.mem_ctrls.perBankWrBursts::2                 0                       # Per bank write bursts
system.mem_ctrls.perBankWrBursts::3                 0                       # Per bank write bursts
system.mem_ctrls.perBankWrBursts::4                 0                       # Per bank write bursts
system.mem_ctrls.perBankWrBursts::5                 0                       # Per bank write bursts
system.mem_ctrls.perBankWrBursts::6                 0                       # Per bank write bursts
system.mem_ctrls.perBankWrBursts::7                 0                       # Per bank write bursts
system.mem_ctrls.perBankWrBursts::8                 0                       # Per bank write bursts
system.mem_ctrls.perBankWrBursts::9                 0                       # Per bank write bursts
system.mem_ctrls.perBankWrBursts::10                0                       # Per bank write bursts
system.mem_ctrls.perBankWrBursts::11                0                       # Per bank write bursts
system.mem_ctrls.perBankWrBursts::12                0                       # Per bank write bursts
system.mem_ctrls.perBankWrBursts::13                0                       # Per bank write bursts
system.mem_ctrls.perBankWrBursts::14                0                       # Per bank write bursts
system.mem_ctrls.perBankWrBursts::15                0                       # Per bank write bursts
system.mem_ctrls.numRdRetry                         0                       # Number of times read queue was full causing retry
system.mem_ctrls.numWrRetry                         0                       # Number of times write queue was full causing retry
system.mem_ctrls.totGap                  110446948000                       # Total gap between requests
system.mem_ctrls.readPktSize::0                     0                       # Read request sizes (log2)
system.mem_ctrls.readPktSize::1                     0                       # Read request sizes (log2)
system.mem_ctrls.readPktSize::2                     0                       # Read request sizes (log2)
system.mem_ctrls.readPktSize::3                     0                       # Read request sizes (log2)
system.mem_ctrls.readPktSize::4                     0                       # Read request sizes (log2)
system.mem_ctrls.readPktSize::5                     0                       # Read request sizes (log2)
system.mem_ctrls.readPktSize::6                   676                       # Read request sizes (log2)
system.mem_ctrls.writePktSize::0                    0                       # Write request sizes (log2)
system.mem_ctrls.writePktSize::1                    0                       # Write request sizes (log2)
system.mem_ctrls.writePktSize::2                    0                       # Write request sizes (log2)
system.mem_ctrls.writePktSize::3                    0                       # Write request sizes (log2)
system.mem_ctrls.writePktSize::4                    0                       # Write request sizes (log2)
system.mem_ctrls.writePktSize::5                    0                       # Write request sizes (log2)
system.mem_ctrls.writePktSize::6                    0                       # Write request sizes (log2)
system.mem_ctrls.rdQLenPdf::0                     356                       # What read queue length does an incoming req see
system.mem_ctrls.rdQLenPdf::1                     193                       # What read queue length does an incoming req see
system.mem_ctrls.rdQLenPdf::2                      78                       # What read queue length does an incoming req see
system.mem_ctrls.rdQLenPdf::3                      21                       # What read queue length does an incoming req see
system.mem_ctrls.rdQLenPdf::4                       9                       # What read queue length does an incoming req see
system.mem_ctrls.rdQLenPdf::5                       6                       # What read queue length does an incoming req see
system.mem_ctrls.rdQLenPdf::6                       4                       # What read queue length does an incoming req see
system.mem_ctrls.rdQLenPdf::7                       4                       # What read queue length does an incoming req see
system.mem_ctrls.rdQLenPdf::8                       4                       # What read queue length does an incoming req see
system.mem_ctrls.rdQLenPdf::9                       1                       # What read queue length does an incoming req see
system.mem_ctrls.rdQLenPdf::10                      0                       # What read queue length does an incoming req see
system.mem_ctrls.rdQLenPdf::11                      0                       # What read queue length does an incoming req see
system.mem_ctrls.rdQLenPdf::12                      0                       # What read queue length does an incoming req see
system.mem_ctrls.rdQLenPdf::13                      0                       # What read queue length does an incoming req see
system.mem_ctrls.rdQLenPdf::14                      0                       # What read queue length does an incoming req see
system.mem_ctrls.rdQLenPdf::15                      0                       # What read queue length does an incoming req see
system.mem_ctrls.rdQLenPdf::16                      0                       # What read queue length does an incoming req see
system.mem_ctrls.rdQLenPdf::17                      0                       # What read queue length does an incoming req see
system.mem_ctrls.rdQLenPdf::18                      0                       # What read queue length does an incoming req see
system.mem_ctrls.rdQLenPdf::19                      0                       # What read queue length does an incoming req see
system.mem_ctrls.rdQLenPdf::20                      0                       # What read queue length does an incoming req see
system.mem_ctrls.rdQLenPdf::21                      0                       # What read queue length does an incoming req see
system.mem_ctrls.rdQLenPdf::22                      0                       # What read queue length does an incoming req see
system.mem_ctrls.rdQLenPdf::23                      0                       # What read queue length does an incoming req see
system.mem_ctrls.rdQLenPdf::24                      0                       # What read queue length does an incoming req see
system.mem_ctrls.rdQLenPdf::25                      0                       # What read queue length does an incoming req see
system.mem_ctrls.rdQLenPdf::26                      0                       # What read queue length does an incoming req see
system.mem_ctrls.rdQLenPdf::27                      0                       # What read queue length does an incoming req see
system.mem_ctrls.rdQLenPdf::28                      0                       # What read queue length does an incoming req see
system.mem_ctrls.rdQLenPdf::29                      0                       # What read queue length does an incoming req see
system.mem_ctrls.rdQLenPdf::30                      0                       # What read queue length does an incoming req see
system.mem_ctrls.rdQLenPdf::31                      0                       # What read queue length does an incoming req see
system.mem_ctrls.wrQLenPdf::0                       0                       # What write queue length does an incoming req see
system.mem_ctrls.wrQLenPdf::1                       0                       # What write queue length does an incoming req see
system.mem_ctrls.wrQLenPdf::2                       0                       # What write queue length does an incoming req see
system.mem_ctrls.wrQLenPdf::3                       0                       # What write queue length does an incoming req see
system.mem_ctrls.wrQLenPdf::4                       0                       # What write queue length does an incoming req see
system.mem_ctrls.wrQLenPdf::5                       0                       # What write queue length does an incoming req see
system.mem_ctrls.wrQLenPdf::6                       0                       # What write queue length does an incoming req see
system.mem_ctrls.wrQLenPdf::7                       0                       # What write queue length does an incoming req see
system.mem_ctrls.wrQLenPdf::8                       0                       # What write queue length does an incoming req see
system.mem_ctrls.wrQLenPdf::9                       0                       # What write queue length does an incoming req see
system.mem_ctrls.wrQLenPdf::10                      0                       # What write queue length does an incoming req see
system.mem_ctrls.wrQLenPdf::11                      0                       # What write queue length does an incoming req see
system.mem_ctrls.wrQLenPdf::12                      0                       # What write queue length does an incoming req see
system.mem_ctrls.wrQLenPdf::13                      0                       # What write queue length does an incoming req see
system.mem_ctrls.wrQLenPdf::14                      0                       # What write queue length does an incoming req see
system.mem_ctrls.wrQLenPdf::15                      0                       # What write queue length does an incoming req see
system.mem_ctrls.wrQLenPdf::16                      0                       # What write queue length does an incoming req see
system.mem_ctrls.wrQLenPdf::17                      0                       # What write queue length does an incoming req see
system.mem_ctrls.wrQLenPdf::18                      0                       # What write queue length does an incoming req see
system.mem_ctrls.wrQLenPdf::19                      0                       # What write queue length does an incoming req see
system.mem_ctrls.wrQLenPdf::20                      0                       # What write queue length does an incoming req see
system.mem_ctrls.wrQLenPdf::21                      0                       # What write queue length does an incoming req see
system.mem_ctrls.wrQLenPdf::22                      0                       # What write queue length does an incoming req see
system.mem_ctrls.wrQLenPdf::23                      0                       # What write queue length does an incoming req see
system.mem_ctrls.wrQLenPdf::24                      0                       # What write queue length does an incoming req see
system.mem_ctrls.wrQLenPdf::25                      0                       # What write queue length does an incoming req see
system.mem_ctrls.wrQLenPdf::26                      0                       # What write queue length does an incoming req see
system.mem_ctrls.wrQLenPdf::27                      0                       # What write queue length does an incoming req see
system.mem_ctrls.wrQLenPdf::28                      0                       # What write queue length does an incoming req see
system.mem_ctrls.wrQLenPdf::29                      0                       # What write queue length does an incoming req see
system.mem_ctrls.wrQLenPdf::30                      0                       # What write queue length does an incoming req see
system.mem_ctrls.wrQLenPdf::31                      0                       # What write queue length does an incoming req see
system.mem_ctrls.wrQLenPdf::32                      0                       # What write queue length does an incoming req see
system.mem_ctrls.wrQLenPdf::33                      0                       # What write queue length does an incoming req see
system.mem_ctrls.wrQLenPdf::34                      0                       # What write queue length does an incoming req see
system.mem_ctrls.wrQLenPdf::35                      0                       # What write queue length does an incoming req see
system.mem_ctrls.wrQLenPdf::36                      0                       # What write queue length does an incoming req see
system.mem_ctrls.wrQLenPdf::37                      0                       # What write queue length does an incoming req see
system.mem_ctrls.wrQLenPdf::38                      0                       # What write queue length does an incoming req see
system.mem_ctrls.wrQLenPdf::39                      0                       # What write queue length does an incoming req see
system.mem_ctrls.wrQLenPdf::40                      0                       # What write queue length does an incoming req see
system.mem_ctrls.wrQLenPdf::41                      0                       # What write queue length does an incoming req see
system.mem_ctrls.wrQLenPdf::42                      0                       # What write queue length does an incoming req see
system.mem_ctrls.wrQLenPdf::43                      0                       # What write queue length does an incoming req see
system.mem_ctrls.wrQLenPdf::44                      0                       # What write queue length does an incoming req see
system.mem_ctrls.wrQLenPdf::45                      0                       # What write queue length does an incoming req see
system.mem_ctrls.wrQLenPdf::46                      0                       # What write queue length does an incoming req see
system.mem_ctrls.wrQLenPdf::47                      0                       # What write queue length does an incoming req see
system.mem_ctrls.wrQLenPdf::48                      0                       # What write queue length does an incoming req see
system.mem_ctrls.wrQLenPdf::49                      0                       # What write queue length does an incoming req see
system.mem_ctrls.wrQLenPdf::50                      0                       # What write queue length does an incoming req see
system.mem_ctrls.wrQLenPdf::51                      0                       # What write queue length does an incoming req see
system.mem_ctrls.wrQLenPdf::52                      0                       # What write queue length does an incoming req see
system.mem_ctrls.wrQLenPdf::53                      0                       # What write queue length does an incoming req see
system.mem_ctrls.wrQLenPdf::54                      0                       # What write queue length does an incoming req see
system.mem_ctrls.wrQLenPdf::55                      0                       # What write queue length does an incoming req see
system.mem_ctrls.wrQLenPdf::56                      0                       # What write queue length does an incoming req see
system.mem_ctrls.wrQLenPdf::57                      0                       # What write queue length does an incoming req see
system.mem_ctrls.wrQLenPdf::58                      0                       # What write queue length does an incoming req see
system.mem_ctrls.wrQLenPdf::59                      0                       # What write queue length does an incoming req see
system.mem_ctrls.wrQLenPdf::60                      0                       # What write queue length does an incoming req see
system.mem_ctrls.wrQLenPdf::61                      0                       # What write queue length does an incoming req see
system.mem_ctrls.wrQLenPdf::62                      0                       # What write queue length does an incoming req see
system.mem_ctrls.wrQLenPdf::63                      0                       # What write queue length does an incoming req see
system.mem_ctrls.bytesPerActivate::samples          136                       # Bytes accessed per row activation
system.mem_ctrls.bytesPerActivate::mean    295.058824                       # Bytes accessed per row activation
system.mem_ctrls.bytesPerActivate::gmean   175.103051                       # Bytes accessed per row activation
system.mem_ctrls.bytesPerActivate::stdev   319.968975                       # Bytes accessed per row activation
system.mem_ctrls.bytesPerActivate::0-127           52     38.24%     38.24% # Bytes accessed per row activation
system.mem_ctrls.bytesPerActivate::128-255           35     25.74%     63.97% # Bytes accessed per row activation
system.mem_ctrls.bytesPerActivate::256-383           14     10.29%     74.26% # Bytes accessed per row activation
system.mem_ctrls.bytesPerActivate::384-511            5      3.68%     77.94% # Bytes accessed per row activation
system.mem_ctrls.bytesPerActivate::512-639            7      5.15%     83.09% # Bytes accessed per row activation
system.mem_ctrls.bytesPerActivate::640-767            3      2.21%     85.29% # Bytes accessed per row activation
system.mem_ctrls.bytesPerActivate::768-895            4      2.94%     88.24% # Bytes accessed per row activation
system.mem_ctrls.bytesPerActivate::896-1023            2      1.47%     89.71% # Bytes accessed per row activation
system.mem_ctrls.bytesPerActivate::1024-1151           14     10.29%    100.00% # Bytes accessed per row activation
system.mem_ctrls.bytesPerActivate::total          136                       # Bytes accessed per row activation
system.mem_ctrls.totQLat                     28712257                       # Total ticks spent queuing
system.mem_ctrls.totMemAccLat                41387257                       # Total ticks spent from burst creation until serviced by the DRAM
system.mem_ctrls.totBusLat                    3380000                       # Total ticks spent in databus transfers
system.mem_ctrls.avgQLat                     42473.75                       # Average queueing delay per DRAM burst
system.mem_ctrls.avgBusLat                    5000.00                       # Average bus latency per DRAM burst
system.mem_ctrls.avgMemAccLat                61223.75                       # Average memory access latency per DRAM burst
system.mem_ctrls.avgRdBW                         0.39                       # Average DRAM read bandwidth in MiByte/s
system.mem_ctrls.avgWrBW                         0.00                       # Average achieved write bandwidth in MiByte/s
system.mem_ctrls.avgRdBWSys                      0.39                       # Average system read bandwidth in MiByte/s
system.mem_ctrls.avgWrBWSys                      0.00                       # Average system write bandwidth in MiByte/s
system.mem_ctrls.peakBW                      12800.00                       # Theoretical peak bandwidth in MiByte/s
system.mem_ctrls.busUtil                         0.00                       # Data bus utilization in percentage
system.mem_ctrls.busUtilRead                     0.00                       # Data bus utilization in percentage for reads
system.mem_ctrls.busUtilWrite                    0.00                       # Data bus utilization in percentage for writes
system.mem_ctrls.avgRdQLen                       2.22                       # Average read queue length when enqueuing
system.mem_ctrls.avgWrQLen                       0.00                       # Average write queue length when enqueuing
system.mem_ctrls.readRowHits                      529                       # Number of row buffer hits during reads
system.mem_ctrls.writeRowHits                       0                       # Number of row buffer hits during writes
system.mem_ctrls.readRowHitRate                 78.25                       # Row buffer hit rate for reads
system.mem_ctrls.writeRowHitRate                  nan                       # Row buffer hit rate for writes
system.mem_ctrls.avgGap                  163383059.17                       # Average gap between requests
system.mem_ctrls.pageHitRate                    78.25                       # Row buffer hit rate, read and write combined
system.mem_ctrls_0.actEnergy                   578340                       # Energy for activate commands per rank (pJ)
system.mem_ctrls_0.preEnergy                   284625                       # Energy for precharge commands per rank (pJ)
system.mem_ctrls_0.readEnergy                 2955960                       # Energy for read commands per rank (pJ)
system.mem_ctrls_0.writeEnergy                      0                       # Energy for write commands per rank (pJ)
system.mem_ctrls_0.refreshEnergy         7375680.000000                       # Energy for refresh commands per rank (pJ)
system.mem_ctrls_0.actBackEnergy              5841930                       # Energy for active background per rank (pJ)
system.mem_ctrls_0.preBackEnergy               439200                       # Energy for precharge background per rank (pJ)
system.mem_ctrls_0.actPowerDownEnergy        18063300                       # Energy for active power-down per rank (pJ)
system.mem_ctrls_0.prePowerDownEnergy         8665440                       # Energy for precharge power-down per rank (pJ)
system.mem_ctrls_0.selfRefreshEnergy      26490667920                       # Energy for self refresh per rank (pJ)
system.mem_ctrls_0.totalEnergy            26534872395                       # Total energy per rank (pJ)
system.mem_ctrls_0.averagePower            240.249795                       # Core power per rank (mW)
system.mem_ctrls_0.totalIdleTime         110432986500                       # Total Idle time Per DRAM Rank
system.mem_ctrls_0.memoryStateTime::IDLE       835000                       # Time in different power states
system.mem_ctrls_0.memoryStateTime::REF       3138000                       # Time in different power states
system.mem_ctrls_0.memoryStateTime::SREF 110370880250                       # Time in different power states
system.mem_ctrls_0.memoryStateTime::PRE_PDN     22567750                       # Time in different power states
system.mem_ctrls_0.memoryStateTime::ACT      10002250                       # Time in different power states
system.mem_ctrls_0.memoryStateTime::ACT_PDN     39589750                       # Time in different power states
system.mem_ctrls_1.actEnergy                   471240                       # Energy for activate commands per rank (pJ)
system.mem_ctrls_1.preEnergy                   231495                       # Energy for precharge commands per rank (pJ)
system.mem_ctrls_1.readEnergy                 1870680                       # Energy for read commands per rank (pJ)
system.mem_ctrls_1.writeEnergy                      0                       # Energy for write commands per rank (pJ)
system.mem_ctrls_1.refreshEnergy         23356320.000000                       # Energy for refresh commands per rank (pJ)
system.mem_ctrls_1.actBackEnergy              7329060                       # Energy for active background per rank (pJ)
system.mem_ctrls_1.preBackEnergy              1586400                       # Energy for precharge background per rank (pJ)
system.mem_ctrls_1.actPowerDownEnergy        46364370                       # Energy for active power-down per rank (pJ)
system.mem_ctrls_1.prePowerDownEnergy        34682880                       # Energy for precharge power-down per rank (pJ)
system.mem_ctrls_1.selfRefreshEnergy      26462982180                       # Energy for self refresh per rank (pJ)
system.mem_ctrls_1.totalEnergy            26578874625                       # Total energy per rank (pJ)
system.mem_ctrls_1.averagePower            240.648196                       # Core power per rank (mW)
system.mem_ctrls_1.totalIdleTime         110426781750                       # Total Idle time Per DRAM Rank
system.mem_ctrls_1.memoryStateTime::IDLE      3343000                       # Time in different power states
system.mem_ctrls_1.memoryStateTime::REF       9952000                       # Time in different power states
system.mem_ctrls_1.memoryStateTime::SREF 110234815500                       # Time in different power states
system.mem_ctrls_1.memoryStateTime::PRE_PDN     90321000                       # Time in different power states
system.mem_ctrls_1.memoryStateTime::ACT       6903000                       # Time in different power states
system.mem_ctrls_1.memoryStateTime::ACT_PDN    101678500                       # Time in different power states
system.pwrStateResidencyTicks::UNDEFINED 110447013000                       # Cumulative time (in ticks) in various power states
system.cpu.branchPred.lookups                27712166                       # Number of BP lookups
system.cpu.branchPred.condPredicted          27542481                       # Number of conditional branches predicted
system.cpu.branchPred.condIncorrect           1218669                       # Number of conditional branches incorrect
system.cpu.branchPred.BTBLookups             21035242                       # Number of BTB lookups
system.cpu.branchPred.BTBHits                21033329                       # Number of BTB hits
system.cpu.branchPred.BTBCorrect                    0                       # Number of correct BTB predictions (this stat may not work properly.
system.cpu.branchPred.BTBHitPct             99.990906                       # BTB Hit Percentage
system.cpu.branchPred.usedRAS                   53532                       # Number of times the RAS was used to get a target.
system.cpu.branchPred.RASInCorrect                  1                       # Number of incorrect RAS predictions.
system.cpu.branchPred.indirectLookups             470                       # Number of indirect predictor lookups.
system.cpu.branchPred.indirectHits                393                       # Number of indirect target hits.
system.cpu.branchPred.indirectMisses               77                       # Number of indirect misses.
system.cpu.branchPredindirectMispredicted           45                       # Number of mispredicted indirect branches.
system.cpu.branchPred.atLeastOneCorrectExpert       688715                       # Number of mispredicts where there was at least one correct not-selected scheme.
system.cpu_voltage_domain.voltage                   1                       # Voltage in Volts
system.cpu_clk_domain.clock                       500                       # Clock period in ticks
system.cpu.dstage2_mmu.stage2_tlb.walker.pwrStateResidencyTicks::UNDEFINED 110447013000                       # Cumulative time (in ticks) in various power states
system.cpu.dstage2_mmu.stage2_tlb.walker.walks            0                       # Table walker walks requested
system.cpu.dstage2_mmu.stage2_tlb.walker.walkRequestOrigin_Requested::Data            0                       # Table walker requests started/completed, data/inst
system.cpu.dstage2_mmu.stage2_tlb.walker.walkRequestOrigin_Requested::Inst            0                       # Table walker requests started/completed, data/inst
system.cpu.dstage2_mmu.stage2_tlb.walker.walkRequestOrigin_Requested::total            0                       # Table walker requests started/completed, data/inst
system.cpu.dstage2_mmu.stage2_tlb.walker.walkRequestOrigin_Completed::Data            0                       # Table walker requests started/completed, data/inst
system.cpu.dstage2_mmu.stage2_tlb.walker.walkRequestOrigin_Completed::Inst            0                       # Table walker requests started/completed, data/inst
system.cpu.dstage2_mmu.stage2_tlb.walker.walkRequestOrigin_Completed::total            0                       # Table walker requests started/completed, data/inst
system.cpu.dstage2_mmu.stage2_tlb.walker.walkRequestOrigin::total            0                       # Table walker requests started/completed, data/inst
system.cpu.dstage2_mmu.stage2_tlb.inst_hits            0                       # ITB inst hits
system.cpu.dstage2_mmu.stage2_tlb.inst_misses            0                       # ITB inst misses
system.cpu.dstage2_mmu.stage2_tlb.read_hits            0                       # DTB read hits
system.cpu.dstage2_mmu.stage2_tlb.read_misses            0                       # DTB read misses
system.cpu.dstage2_mmu.stage2_tlb.write_hits            0                       # DTB write hits
system.cpu.dstage2_mmu.stage2_tlb.write_misses            0                       # DTB write misses
system.cpu.dstage2_mmu.stage2_tlb.flush_tlb            0                       # Number of times complete TLB was flushed
system.cpu.dstage2_mmu.stage2_tlb.flush_tlb_mva            0                       # Number of times TLB was flushed by MVA
system.cpu.dstage2_mmu.stage2_tlb.flush_tlb_mva_asid            0                       # Number of times TLB was flushed by MVA & ASID
system.cpu.dstage2_mmu.stage2_tlb.flush_tlb_asid            0                       # Number of times TLB was flushed by ASID
system.cpu.dstage2_mmu.stage2_tlb.flush_entries            0                       # Number of entries that have been flushed from TLB
system.cpu.dstage2_mmu.stage2_tlb.align_faults            0                       # Number of TLB faults due to alignment restrictions
system.cpu.dstage2_mmu.stage2_tlb.prefetch_faults            0                       # Number of TLB faults due to prefetch
system.cpu.dstage2_mmu.stage2_tlb.domain_faults            0                       # Number of TLB faults due to domain restrictions
system.cpu.dstage2_mmu.stage2_tlb.perms_faults            0                       # Number of TLB faults due to permissions restrictions
system.cpu.dstage2_mmu.stage2_tlb.read_accesses            0                       # DTB read accesses
system.cpu.dstage2_mmu.stage2_tlb.write_accesses            0                       # DTB write accesses
system.cpu.dstage2_mmu.stage2_tlb.inst_accesses            0                       # ITB inst accesses
system.cpu.dstage2_mmu.stage2_tlb.hits              0                       # DTB hits
system.cpu.dstage2_mmu.stage2_tlb.misses            0                       # DTB misses
system.cpu.dstage2_mmu.stage2_tlb.accesses            0                       # DTB accesses
system.cpu.dtb.walker.pwrStateResidencyTicks::UNDEFINED 110447013000                       # Cumulative time (in ticks) in various power states
system.cpu.dtb.walker.walks                         0                       # Table walker walks requested
system.cpu.dtb.walker.walkRequestOrigin_Requested::Data            0                       # Table walker requests started/completed, data/inst
system.cpu.dtb.walker.walkRequestOrigin_Requested::Inst            0                       # Table walker requests started/completed, data/inst
system.cpu.dtb.walker.walkRequestOrigin_Requested::total            0                       # Table walker requests started/completed, data/inst
system.cpu.dtb.walker.walkRequestOrigin_Completed::Data            0                       # Table walker requests started/completed, data/inst
system.cpu.dtb.walker.walkRequestOrigin_Completed::Inst            0                       # Table walker requests started/completed, data/inst
system.cpu.dtb.walker.walkRequestOrigin_Completed::total            0                       # Table walker requests started/completed, data/inst
system.cpu.dtb.walker.walkRequestOrigin::total            0                       # Table walker requests started/completed, data/inst
system.cpu.dtb.inst_hits                            0                       # ITB inst hits
system.cpu.dtb.inst_misses                          0                       # ITB inst misses
system.cpu.dtb.read_hits                            0                       # DTB read hits
system.cpu.dtb.read_misses                          0                       # DTB read misses
system.cpu.dtb.write_hits                           0                       # DTB write hits
system.cpu.dtb.write_misses                         0                       # DTB write misses
system.cpu.dtb.flush_tlb                            0                       # Number of times complete TLB was flushed
system.cpu.dtb.flush_tlb_mva                        0                       # Number of times TLB was flushed by MVA
system.cpu.dtb.flush_tlb_mva_asid                   0                       # Number of times TLB was flushed by MVA & ASID
system.cpu.dtb.flush_tlb_asid                       0                       # Number of times TLB was flushed by ASID
system.cpu.dtb.flush_entries                        0                       # Number of entries that have been flushed from TLB
system.cpu.dtb.align_faults                         0                       # Number of TLB faults due to alignment restrictions
system.cpu.dtb.prefetch_faults                      0                       # Number of TLB faults due to prefetch
system.cpu.dtb.domain_faults                        0                       # Number of TLB faults due to domain restrictions
system.cpu.dtb.perms_faults                         0                       # Number of TLB faults due to permissions restrictions
system.cpu.dtb.read_accesses                        0                       # DTB read accesses
system.cpu.dtb.write_accesses                       0                       # DTB write accesses
system.cpu.dtb.inst_accesses                        0                       # ITB inst accesses
system.cpu.dtb.hits                                 0                       # DTB hits
system.cpu.dtb.misses                               0                       # DTB misses
system.cpu.dtb.accesses                             0                       # DTB accesses
system.cpu.istage2_mmu.stage2_tlb.walker.pwrStateResidencyTicks::UNDEFINED 110447013000                       # Cumulative time (in ticks) in various power states
system.cpu.istage2_mmu.stage2_tlb.walker.walks            0                       # Table walker walks requested
system.cpu.istage2_mmu.stage2_tlb.walker.walkRequestOrigin_Requested::Data            0                       # Table walker requests started/completed, data/inst
system.cpu.istage2_mmu.stage2_tlb.walker.walkRequestOrigin_Requested::Inst            0                       # Table walker requests started/completed, data/inst
system.cpu.istage2_mmu.stage2_tlb.walker.walkRequestOrigin_Requested::total            0                       # Table walker requests started/completed, data/inst
system.cpu.istage2_mmu.stage2_tlb.walker.walkRequestOrigin_Completed::Data            0                       # Table walker requests started/completed, data/inst
system.cpu.istage2_mmu.stage2_tlb.walker.walkRequestOrigin_Completed::Inst            0                       # Table walker requests started/completed, data/inst
system.cpu.istage2_mmu.stage2_tlb.walker.walkRequestOrigin_Completed::total            0                       # Table walker requests started/completed, data/inst
system.cpu.istage2_mmu.stage2_tlb.walker.walkRequestOrigin::total            0                       # Table walker requests started/completed, data/inst
system.cpu.istage2_mmu.stage2_tlb.inst_hits            0                       # ITB inst hits
system.cpu.istage2_mmu.stage2_tlb.inst_misses            0                       # ITB inst misses
system.cpu.istage2_mmu.stage2_tlb.read_hits            0                       # DTB read hits
system.cpu.istage2_mmu.stage2_tlb.read_misses            0                       # DTB read misses
system.cpu.istage2_mmu.stage2_tlb.write_hits            0                       # DTB write hits
system.cpu.istage2_mmu.stage2_tlb.write_misses            0                       # DTB write misses
system.cpu.istage2_mmu.stage2_tlb.flush_tlb            0                       # Number of times complete TLB was flushed
system.cpu.istage2_mmu.stage2_tlb.flush_tlb_mva            0                       # Number of times TLB was flushed by MVA
system.cpu.istage2_mmu.stage2_tlb.flush_tlb_mva_asid            0                       # Number of times TLB was flushed by MVA & ASID
system.cpu.istage2_mmu.stage2_tlb.flush_tlb_asid            0                       # Number of times TLB was flushed by ASID
system.cpu.istage2_mmu.stage2_tlb.flush_entries            0                       # Number of entries that have been flushed from TLB
system.cpu.istage2_mmu.stage2_tlb.align_faults            0                       # Number of TLB faults due to alignment restrictions
system.cpu.istage2_mmu.stage2_tlb.prefetch_faults            0                       # Number of TLB faults due to prefetch
system.cpu.istage2_mmu.stage2_tlb.domain_faults            0                       # Number of TLB faults due to domain restrictions
system.cpu.istage2_mmu.stage2_tlb.perms_faults            0                       # Number of TLB faults due to permissions restrictions
system.cpu.istage2_mmu.stage2_tlb.read_accesses            0                       # DTB read accesses
system.cpu.istage2_mmu.stage2_tlb.write_accesses            0                       # DTB write accesses
system.cpu.istage2_mmu.stage2_tlb.inst_accesses            0                       # ITB inst accesses
system.cpu.istage2_mmu.stage2_tlb.hits              0                       # DTB hits
system.cpu.istage2_mmu.stage2_tlb.misses            0                       # DTB misses
system.cpu.istage2_mmu.stage2_tlb.accesses            0                       # DTB accesses
system.cpu.itb.walker.pwrStateResidencyTicks::UNDEFINED 110447013000                       # Cumulative time (in ticks) in various power states
system.cpu.itb.walker.walks                         0                       # Table walker walks requested
system.cpu.itb.walker.walkRequestOrigin_Requested::Data            0                       # Table walker requests started/completed, data/inst
system.cpu.itb.walker.walkRequestOrigin_Requested::Inst            0                       # Table walker requests started/completed, data/inst
system.cpu.itb.walker.walkRequestOrigin_Requested::total            0                       # Table walker requests started/completed, data/inst
system.cpu.itb.walker.walkRequestOrigin_Completed::Data            0                       # Table walker requests started/completed, data/inst
system.cpu.itb.walker.walkRequestOrigin_Completed::Inst            0                       # Table walker requests started/completed, data/inst
system.cpu.itb.walker.walkRequestOrigin_Completed::total            0                       # Table walker requests started/completed, data/inst
system.cpu.itb.walker.walkRequestOrigin::total            0                       # Table walker requests started/completed, data/inst
system.cpu.itb.inst_hits                            0                       # ITB inst hits
system.cpu.itb.inst_misses                          0                       # ITB inst misses
system.cpu.itb.read_hits                            0                       # DTB read hits
system.cpu.itb.read_misses                          0                       # DTB read misses
system.cpu.itb.write_hits                           0                       # DTB write hits
system.cpu.itb.write_misses                         0                       # DTB write misses
system.cpu.itb.flush_tlb                            0                       # Number of times complete TLB was flushed
system.cpu.itb.flush_tlb_mva                        0                       # Number of times TLB was flushed by MVA
system.cpu.itb.flush_tlb_mva_asid                   0                       # Number of times TLB was flushed by MVA & ASID
system.cpu.itb.flush_tlb_asid                       0                       # Number of times TLB was flushed by ASID
system.cpu.itb.flush_entries                        0                       # Number of entries that have been flushed from TLB
system.cpu.itb.align_faults                         0                       # Number of TLB faults due to alignment restrictions
system.cpu.itb.prefetch_faults                      0                       # Number of TLB faults due to prefetch
system.cpu.itb.domain_faults                        0                       # Number of TLB faults due to domain restrictions
system.cpu.itb.perms_faults                         0                       # Number of TLB faults due to permissions restrictions
system.cpu.itb.read_accesses                        0                       # DTB read accesses
system.cpu.itb.write_accesses                       0                       # DTB write accesses
system.cpu.itb.inst_accesses                        0                       # ITB inst accesses
system.cpu.itb.hits                                 0                       # DTB hits
system.cpu.itb.misses                               0                       # DTB misses
system.cpu.itb.accesses                             0                       # DTB accesses
system.cpu.workload.numSyscalls                    11                       # Number of system calls
system.cpu.pwrStateResidencyTicks::ON    110447013000                       # Cumulative time (in ticks) in various power states
system.cpu.numCycles                        220894027                       # number of cpu cycles simulated
system.cpu.numWorkItemsStarted                      0                       # number of work items this cpu started
system.cpu.numWorkItemsCompleted                    0                       # number of work items this cpu completed
system.cpu.fetch.icacheStallCycles            1222628                       # Number of cycles fetch is stalled on an Icache miss
system.cpu.fetch.Insts                      451624305                       # Number of instructions fetch has processed
system.cpu.fetch.Branches                    27712166                       # Number of branches that fetch encountered
system.cpu.fetch.predictedBranches           21087254                       # Number of branches that fetch has predicted taken
system.cpu.fetch.Cycles                     218412561                       # Number of cycles fetch has run and was not squashing or blocked
system.cpu.fetch.SquashCycles                 2440906                       # Number of cycles fetch has spent squashing
system.cpu.fetch.MiscStallCycles                   32                       # Number of cycles fetch has spent waiting on interrupts, or bad addresses, or out of MSHRs
system.cpu.fetch.IcacheWaitRetryStallCycles          472                       # Number of stall cycles due to full MSHR
system.cpu.fetch.CacheLines                 120896316                       # Number of cache lines fetched
system.cpu.fetch.IcacheSquashes                   248                       # Number of outstanding Icache misses that were squashed
system.cpu.fetch.rateDist::samples          220856146                       # Number of instructions fetched each cycle (Total)
system.cpu.fetch.rateDist::mean              2.044948                       # Number of instructions fetched each cycle (Total)
system.cpu.fetch.rateDist::stdev             1.000062                       # Number of instructions fetched each cycle (Total)
system.cpu.fetch.rateDist::underflows               0      0.00%      0.00% # Number of instructions fetched each cycle (Total)
system.cpu.fetch.rateDist::0                  2537159      1.15%      1.15% # Number of instructions fetched each cycle (Total)
system.cpu.fetch.rateDist::1                 98089911     44.41%     45.56% # Number of instructions fetched each cycle (Total)
system.cpu.fetch.rateDist::2                  7137757      3.23%     48.79% # Number of instructions fetched each cycle (Total)
system.cpu.fetch.rateDist::3                113091319     51.21%    100.00% # Number of instructions fetched each cycle (Total)
system.cpu.fetch.rateDist::overflows                0      0.00%    100.00% # Number of instructions fetched each cycle (Total)
system.cpu.fetch.rateDist::min_value                0                       # Number of instructions fetched each cycle (Total)
system.cpu.fetch.rateDist::max_value                3                       # Number of instructions fetched each cycle (Total)
system.cpu.fetch.rateDist::total            220856146                       # Number of instructions fetched each cycle (Total)
system.cpu.fetch.branchRate                  0.125455                       # Number of branch fetches per cycle
system.cpu.fetch.rate                        2.044529                       # Number of inst fetches per cycle
system.cpu.decode.IdleCycles                  2858832                       # Number of cycles decode is idle
system.cpu.decode.BlockedCycles               3162976                       # Number of cycles decode is blocked
system.cpu.decode.RunCycles                 212873093                       # Number of cycles decode is running
system.cpu.decode.UnblockCycles                740982                       # Number of cycles decode is unblocking
system.cpu.decode.SquashCycles                1220263                       # Number of cycles decode is squashing
system.cpu.decode.BranchResolved             20360143                       # Number of times decode resolved a branch
system.cpu.decode.BranchMispred                   192                       # Number of times decode detected a branch misprediction
system.cpu.decode.DecodedInsts              443517645                       # Number of instructions handled by decode
system.cpu.decode.SquashedInsts               5698417                       # Number of squashed instructions handled by decode
system.cpu.rename.SquashCycles                1220263                       # Number of cycles rename is squashing
system.cpu.rename.IdleCycles                  6682871                       # Number of cycles rename is idle
system.cpu.rename.BlockCycles                 2717147                       # Number of cycles rename is blocking
system.cpu.rename.serializeStallCycles          11390                       # count of cycles rename stalled for serializing inst
system.cpu.rename.RunCycles                 209772620                       # Number of cycles rename is running
system.cpu.rename.UnblockCycles                451855                       # Number of cycles rename is unblocking
system.cpu.rename.RenamedInsts              438447217                       # Number of instructions processed by rename
system.cpu.rename.SquashedInsts               2758985                       # Number of squashed instructions processed by rename
system.cpu.rename.ROBFullEvents                312007                       # Number of times rename has blocked due to ROB full
system.cpu.rename.SQFullEvents                   6947                       # Number of times rename has blocked due to SQ full
system.cpu.rename.FullRegisterEvents              703                       # Number of times there has been no free registers
system.cpu.rename.RenamedOperands           456639961                       # Number of destination operands rename has renamed
system.cpu.rename.RenameLookups             539222634                       # Number of register rename lookups that rename has made
system.cpu.rename.int_rename_lookups        459331386                       # Number of integer rename lookups
system.cpu.rename.vec_rename_lookups             7504                       # Number of vector rename lookups
system.cpu.rename.CommittedMaps             425877352                       # Number of HB maps that are committed
system.cpu.rename.UndoneMaps                 30762609                       # Number of HB maps that are undone due to squashing
system.cpu.rename.serializingInsts                358                       # count of serializing insts renamed
system.cpu.rename.tempSerializingInsts            236                       # count of temporary serializing insts renamed
system.cpu.rename.skidInsts                    660494                       # count of insts added to the skid buffer
system.cpu.memDep0.insertedLoads            142085604                       # Number of loads inserted to the mem dependence unit.
system.cpu.memDep0.insertedStores            34386357                       # Number of stores inserted to the mem dependence unit.
system.cpu.memDep0.conflictingLoads          29621033                       # Number of conflicting loads.
system.cpu.memDep0.conflictingStores                4                       # Number of conflicting stores.
system.cpu.iq.iqInstsAdded                  435411725                       # Number of instructions added to the IQ (excludes non-spec)
system.cpu.iq.iqNonSpecInstsAdded                 237                       # Number of non-speculative instructions added to the IQ
system.cpu.iq.iqInstsIssued                 428414072                       # Number of instructions issued
system.cpu.iq.iqSquashedInstsIssued            273267                       # Number of squashed instructions issued
system.cpu.iq.iqSquashedInstsExamined        27785580                       # Number of squashed instructions iterated over during squash; mainly for profiling
system.cpu.iq.iqSquashedOperandsExamined     17910546                       # Number of squashed operands that are examined and possibly removed from graph
system.cpu.iq.iqSquashedNonSpecRemoved              9                       # Number of squashed non-spec instructions that were removed
system.cpu.iq.issued_per_cycle::samples     220856146                       # Number of insts issued each cycle
system.cpu.iq.issued_per_cycle::mean         1.939788                       # Number of insts issued each cycle
system.cpu.iq.issued_per_cycle::stdev        0.843794                       # Number of insts issued each cycle
system.cpu.iq.issued_per_cycle::underflows            0      0.00%      0.00% # Number of insts issued each cycle
system.cpu.iq.issued_per_cycle::0            12803363      5.80%      5.80% # Number of insts issued each cycle
system.cpu.iq.issued_per_cycle::1            46579700     21.09%     26.89% # Number of insts issued each cycle
system.cpu.iq.issued_per_cycle::2           103267844     46.76%     73.65% # Number of insts issued each cycle
system.cpu.iq.issued_per_cycle::3            57522464     26.05%     99.69% # Number of insts issued each cycle
system.cpu.iq.issued_per_cycle::4              682583      0.31%    100.00% # Number of insts issued each cycle
system.cpu.iq.issued_per_cycle::5                 192      0.00%    100.00% # Number of insts issued each cycle
system.cpu.iq.issued_per_cycle::6                   0      0.00%    100.00% # Number of insts issued each cycle
system.cpu.iq.issued_per_cycle::7                   0      0.00%    100.00% # Number of insts issued each cycle
system.cpu.iq.issued_per_cycle::8                   0      0.00%    100.00% # Number of insts issued each cycle
system.cpu.iq.issued_per_cycle::overflows            0      0.00%    100.00% # Number of insts issued each cycle
system.cpu.iq.issued_per_cycle::min_value            0                       # Number of insts issued each cycle
system.cpu.iq.issued_per_cycle::max_value            5                       # Number of insts issued each cycle
system.cpu.iq.issued_per_cycle::total       220856146                       # Number of insts issued each cycle
system.cpu.iq.fu_full::No_OpClass                   0      0.00%      0.00% # attempts to use FU when none available
system.cpu.iq.fu_full::IntAlu                 9683417     15.54%     15.54% # attempts to use FU when none available
system.cpu.iq.fu_full::IntMult                      0      0.00%     15.54% # attempts to use FU when none available
system.cpu.iq.fu_full::IntDiv                       0      0.00%     15.54% # attempts to use FU when none available
system.cpu.iq.fu_full::FloatAdd                     0      0.00%     15.54% # attempts to use FU when none available
system.cpu.iq.fu_full::FloatCmp                     0      0.00%     15.54% # attempts to use FU when none available
system.cpu.iq.fu_full::FloatCvt                     0      0.00%     15.54% # attempts to use FU when none available
system.cpu.iq.fu_full::FloatMult                    0      0.00%     15.54% # attempts to use FU when none available
system.cpu.iq.fu_full::FloatMultAcc                 0      0.00%     15.54% # attempts to use FU when none available
system.cpu.iq.fu_full::FloatDiv                     0      0.00%     15.54% # attempts to use FU when none available
system.cpu.iq.fu_full::FloatMisc                    0      0.00%     15.54% # attempts to use FU when none available
system.cpu.iq.fu_full::FloatSqrt                    0      0.00%     15.54% # attempts to use FU when none available
system.cpu.iq.fu_full::SimdAdd                      0      0.00%     15.54% # attempts to use FU when none available
system.cpu.iq.fu_full::SimdAddAcc                   0      0.00%     15.54% # attempts to use FU when none available
system.cpu.iq.fu_full::SimdAlu                      6      0.00%     15.54% # attempts to use FU when none available
system.cpu.iq.fu_full::SimdCmp                    105      0.00%     15.54% # attempts to use FU when none available
system.cpu.iq.fu_full::SimdCvt                      0      0.00%     15.54% # attempts to use FU when none available
system.cpu.iq.fu_full::SimdMisc                     0      0.00%     15.54% # attempts to use FU when none available
system.cpu.iq.fu_full::SimdMult                     0      0.00%     15.54% # attempts to use FU when none available
system.cpu.iq.fu_full::SimdMultAcc                  0      0.00%     15.54% # attempts to use FU when none available
system.cpu.iq.fu_full::SimdShift                    0      0.00%     15.54% # attempts to use FU when none available
system.cpu.iq.fu_full::SimdShiftAcc                 0      0.00%     15.54% # attempts to use FU when none available
system.cpu.iq.fu_full::SimdSqrt                     0      0.00%     15.54% # attempts to use FU when none available
system.cpu.iq.fu_full::SimdFloatAdd                 0      0.00%     15.54% # attempts to use FU when none available
system.cpu.iq.fu_full::SimdFloatAlu                 0      0.00%     15.54% # attempts to use FU when none available
system.cpu.iq.fu_full::SimdFloatCmp                 0      0.00%     15.54% # attempts to use FU when none available
system.cpu.iq.fu_full::SimdFloatCvt                 0      0.00%     15.54% # attempts to use FU when none available
system.cpu.iq.fu_full::SimdFloatDiv                 0      0.00%     15.54% # attempts to use FU when none available
system.cpu.iq.fu_full::SimdFloatMisc                0      0.00%     15.54% # attempts to use FU when none available
system.cpu.iq.fu_full::SimdFloatMult                0      0.00%     15.54% # attempts to use FU when none available
system.cpu.iq.fu_full::SimdFloatMultAcc             0      0.00%     15.54% # attempts to use FU when none available
system.cpu.iq.fu_full::SimdFloatSqrt                0      0.00%     15.54% # attempts to use FU when none available
system.cpu.iq.fu_full::MemRead               47553429     76.29%     91.83% # attempts to use FU when none available
system.cpu.iq.fu_full::MemWrite               5095549      8.17%    100.00% # attempts to use FU when none available
system.cpu.iq.fu_full::FloatMemRead                 0      0.00%    100.00% # attempts to use FU when none available
system.cpu.iq.fu_full::FloatMemWrite                0      0.00%    100.00% # attempts to use FU when none available
system.cpu.iq.fu_full::IprAccess                    0      0.00%    100.00% # attempts to use FU when none available
system.cpu.iq.fu_full::InstPrefetch                 0      0.00%    100.00% # attempts to use FU when none available
system.cpu.iq.FU_type_0::No_OpClass               203      0.00%      0.00% # Type of FU issued
system.cpu.iq.FU_type_0::IntAlu             254320478     59.36%     59.36% # Type of FU issued
system.cpu.iq.FU_type_0::IntMult               151705      0.04%     59.40% # Type of FU issued
system.cpu.iq.FU_type_0::IntDiv                     2      0.00%     59.40% # Type of FU issued
system.cpu.iq.FU_type_0::FloatAdd                   0      0.00%     59.40% # Type of FU issued
system.cpu.iq.FU_type_0::FloatCmp                   0      0.00%     59.40% # Type of FU issued
system.cpu.iq.FU_type_0::FloatCvt                   0      0.00%     59.40% # Type of FU issued
system.cpu.iq.FU_type_0::FloatMult                  0      0.00%     59.40% # Type of FU issued
system.cpu.iq.FU_type_0::FloatMultAcc               0      0.00%     59.40% # Type of FU issued
system.cpu.iq.FU_type_0::FloatDiv                   0      0.00%     59.40% # Type of FU issued
system.cpu.iq.FU_type_0::FloatMisc                  0      0.00%     59.40% # Type of FU issued
system.cpu.iq.FU_type_0::FloatSqrt                  0      0.00%     59.40% # Type of FU issued
system.cpu.iq.FU_type_0::SimdAdd                  511      0.00%     59.40% # Type of FU issued
system.cpu.iq.FU_type_0::SimdAddAcc                 0      0.00%     59.40% # Type of FU issued
system.cpu.iq.FU_type_0::SimdAlu                  908      0.00%     59.40% # Type of FU issued
system.cpu.iq.FU_type_0::SimdCmp                  812      0.00%     59.40% # Type of FU issued
system.cpu.iq.FU_type_0::SimdCvt                    0      0.00%     59.40% # Type of FU issued
system.cpu.iq.FU_type_0::SimdMisc                 707      0.00%     59.40% # Type of FU issued
system.cpu.iq.FU_type_0::SimdMult                   0      0.00%     59.40% # Type of FU issued
system.cpu.iq.FU_type_0::SimdMultAcc                0      0.00%     59.40% # Type of FU issued
system.cpu.iq.FU_type_0::SimdShift                  0      0.00%     59.40% # Type of FU issued
system.cpu.iq.FU_type_0::SimdShiftAcc               0      0.00%     59.40% # Type of FU issued
system.cpu.iq.FU_type_0::SimdSqrt                   0      0.00%     59.40% # Type of FU issued
system.cpu.iq.FU_type_0::SimdFloatAdd               0      0.00%     59.40% # Type of FU issued
system.cpu.iq.FU_type_0::SimdFloatAlu               0      0.00%     59.40% # Type of FU issued
system.cpu.iq.FU_type_0::SimdFloatCmp               0      0.00%     59.40% # Type of FU issued
system.cpu.iq.FU_type_0::SimdFloatCvt               0      0.00%     59.40% # Type of FU issued
system.cpu.iq.FU_type_0::SimdFloatDiv               0      0.00%     59.40% # Type of FU issued
system.cpu.iq.FU_type_0::SimdFloatMisc              0      0.00%     59.40% # Type of FU issued
system.cpu.iq.FU_type_0::SimdFloatMult              0      0.00%     59.40% # Type of FU issued
system.cpu.iq.FU_type_0::SimdFloatMultAcc            0      0.00%     59.40% # Type of FU issued
system.cpu.iq.FU_type_0::SimdFloatSqrt              0      0.00%     59.40% # Type of FU issued
system.cpu.iq.FU_type_0::MemRead            140661751     32.83%     92.23% # Type of FU issued
system.cpu.iq.FU_type_0::MemWrite            33276995      7.77%    100.00% # Type of FU issued
system.cpu.iq.FU_type_0::FloatMemRead               0      0.00%    100.00% # Type of FU issued
system.cpu.iq.FU_type_0::FloatMemWrite              0      0.00%    100.00% # Type of FU issued
system.cpu.iq.FU_type_0::IprAccess                  0      0.00%    100.00% # Type of FU issued
system.cpu.iq.FU_type_0::InstPrefetch               0      0.00%    100.00% # Type of FU issued
system.cpu.iq.FU_type_0::total              428414072                       # Type of FU issued
system.cpu.iq.rate                           1.939455                       # Inst issue rate
system.cpu.iq.fu_busy_cnt                    62332506                       # FU busy when requested
system.cpu.iq.fu_busy_rate                   0.145496                       # FU busy rate (busy events/executed inst)
system.cpu.iq.int_inst_queue_reads         1140276715                       # Number of integer instruction queue reads
system.cpu.iq.int_inst_queue_writes         463193059                       # Number of integer instruction queue writes
system.cpu.iq.int_inst_queue_wakeup_accesses    423646650                       # Number of integer instruction queue wakeup accesses
system.cpu.iq.fp_inst_queue_reads                   0                       # Number of floating instruction queue reads
system.cpu.iq.fp_inst_queue_writes                  0                       # Number of floating instruction queue writes
system.cpu.iq.fp_inst_queue_wakeup_accesses            0                       # Number of floating instruction queue wakeup accesses
system.cpu.iq.int_alu_accesses              490739091                       # Number of integer alu accesses
system.cpu.iq.fp_alu_accesses                       0                       # Number of floating point alu accesses
system.cpu.iew.lsq.thread0.forwLoads         50277535                       # Number of loads that had data forwarded from stores
system.cpu.iew.lsq.thread0.invAddrLoads             0                       # Number of loads ignored due to an invalid address
system.cpu.iew.lsq.thread0.squashedLoads      8948539                       # Number of loads squashed
system.cpu.iew.lsq.thread0.ignoredResponses       173186                       # Number of memory responses ignored because the instruction is squashed
system.cpu.iew.lsq.thread0.memOrderViolation         2127                       # Number of memory ordering violations
system.cpu.iew.lsq.thread0.squashedStores      2330896                       # Number of stores squashed
system.cpu.iew.lsq.thread0.invAddrSwpfs             0                       # Number of software prefetches ignored due to an invalid address
system.cpu.iew.lsq.thread0.blockedLoads             0                       # Number of blocked loads due to partial load-store forwarding
system.cpu.iew.lsq.thread0.rescheduledLoads          107                       # Number of loads that were rescheduled
system.cpu.iew.lsq.thread0.cacheBlocked            51                       # Number of times an access to memory failed due to the cache being blocked
system.cpu.iew.iewIdleCycles                        0                       # Number of cycles IEW is idle
system.cpu.iew.iewSquashCycles                1220263                       # Number of cycles IEW is squashing
system.cpu.iew.iewBlockCycles                 2662955                       # Number of cycles IEW is blocking
system.cpu.iew.iewUnblockCycles                    23                       # Number of cycles IEW is unblocking
system.cpu.iew.iewDispatchedInsts           435412572                       # Number of instructions dispatched to IQ
system.cpu.iew.iewDispSquashedInsts                 0                       # Number of squashed instructions skipped by dispatch
system.cpu.iew.iewDispLoadInsts             142085604                       # Number of dispatched load instructions
system.cpu.iew.iewDispStoreInsts             34386357                       # Number of dispatched store instructions
system.cpu.iew.iewDispNonSpecInsts                236                       # Number of dispatched non-speculative instructions
system.cpu.iew.iewIQFullEvents                      0                       # Number of times the IQ has become full, causing a stall
system.cpu.iew.iewLSQFullEvents                    23                       # Number of times the LSQ has become full, causing a stall
system.cpu.iew.memOrderViolationEvents           2127                       # Number of memory order violations
system.cpu.iew.predictedTakenIncorrect         613059                       # Number of branches that were predicted taken incorrectly
system.cpu.iew.predictedNotTakenIncorrect       605647                       # Number of branches that were predicted not taken incorrectly
system.cpu.iew.branchMispredicts              1218706                       # Number of branch mispredicts detected at execute
system.cpu.iew.iewExecutedInsts             425454225                       # Number of executed instructions
system.cpu.iew.iewExecLoadInsts             139135175                       # Number of load instructions executed
system.cpu.iew.iewExecSquashedInsts           2959847                       # Number of squashed instructions skipped in execute
system.cpu.iew.exec_swp                             0                       # number of swp insts executed
system.cpu.iew.exec_nop                           610                       # number of nop insts executed
system.cpu.iew.exec_refs                    171967388                       # number of memory reference insts executed
system.cpu.iew.exec_branches                 25585963                       # Number of branches executed
system.cpu.iew.exec_stores                   32832213                       # Number of stores executed
system.cpu.iew.exec_rate                     1.926056                       # Inst execution rate
system.cpu.iew.wb_sent                      424197565                       # cumulative count of insts sent to commit
system.cpu.iew.wb_count                     423651804                       # cumulative count of insts written-back
system.cpu.iew.wb_producers                 364354679                       # num instructions producing a value
system.cpu.iew.wb_consumers                 415251453                       # num instructions consuming a value
system.cpu.iew.wb_rate                       1.917896                       # insts written-back per cycle
system.cpu.iew.wb_fanout                     0.877431                       # average fanout of values written-back
system.cpu.commit.commitSquashedInsts        25871035                       # The number of squashed insts skipped by commit
system.cpu.commit.commitNonSpecStalls             228                       # The number of times commit has been forced to stall to communicate backwards
system.cpu.commit.branchMispredicts           1218479                       # The number of times a branch was mispredicted
system.cpu.commit.committed_per_cycle::samples    216972928                       # Number of insts commited each cycle
system.cpu.commit.committed_per_cycle::mean     1.878698                       # Number of insts commited each cycle
system.cpu.commit.committed_per_cycle::stdev     2.371520                       # Number of insts commited each cycle
system.cpu.commit.committed_per_cycle::underflows            0      0.00%      0.00% # Number of insts commited each cycle
system.cpu.commit.committed_per_cycle::0     93388882     43.04%     43.04% # Number of insts commited each cycle
system.cpu.commit.committed_per_cycle::1     52846301     24.36%     67.40% # Number of insts commited each cycle
system.cpu.commit.committed_per_cycle::2      2657675      1.22%     68.62% # Number of insts commited each cycle
system.cpu.commit.committed_per_cycle::3      6106401      2.81%     71.44% # Number of insts commited each cycle
system.cpu.commit.committed_per_cycle::4     24111100     11.11%     82.55% # Number of insts commited each cycle
system.cpu.commit.committed_per_cycle::5      7808848      3.60%     86.15% # Number of insts commited each cycle
system.cpu.commit.committed_per_cycle::6     17401624      8.02%     94.17% # Number of insts commited each cycle
system.cpu.commit.committed_per_cycle::7      9969333      4.59%     98.76% # Number of insts commited each cycle
system.cpu.commit.committed_per_cycle::8      2682764      1.24%    100.00% # Number of insts commited each cycle
system.cpu.commit.committed_per_cycle::overflows            0      0.00%    100.00% # Number of insts commited each cycle
system.cpu.commit.committed_per_cycle::min_value            0                       # Number of insts commited each cycle
system.cpu.commit.committed_per_cycle::max_value            8                       # Number of insts commited each cycle
system.cpu.commit.committed_per_cycle::total    216972928                       # Number of insts commited each cycle
system.cpu.commit.committedInsts            407615221                       # Number of instructions committed
system.cpu.commit.committedOps              407626681                       # Number of ops (including micro ops) committed
system.cpu.commit.swp_count                         0                       # Number of s/w prefetches committed
system.cpu.commit.refs                      165192526                       # Number of memory references committed
system.cpu.commit.loads                     133137065                       # Number of loads committed
system.cpu.commit.membars                         216                       # Number of memory barriers committed
system.cpu.commit.branches                   25363647                       # Number of branches committed
system.cpu.commit.vec_insts                      5148                       # Number of committed Vector instructions.
system.cpu.commit.fp_insts                          0                       # Number of committed floating point instructions.
system.cpu.commit.int_insts                 382368518                       # Number of committed integer instructions.
system.cpu.commit.function_calls                51392                       # Number of function calls committed.
system.cpu.commit.op_class_0::No_OpClass          202      0.00%      0.00% # Class of committed instruction
system.cpu.commit.op_class_0::IntAlu        242280514     59.44%     59.44% # Class of committed instruction
system.cpu.commit.op_class_0::IntMult          150503      0.04%     59.47% # Class of committed instruction
system.cpu.commit.op_class_0::IntDiv                2      0.00%     59.47% # Class of committed instruction
system.cpu.commit.op_class_0::FloatAdd              0      0.00%     59.47% # Class of committed instruction
system.cpu.commit.op_class_0::FloatCmp              0      0.00%     59.47% # Class of committed instruction
system.cpu.commit.op_class_0::FloatCvt              0      0.00%     59.47% # Class of committed instruction
system.cpu.commit.op_class_0::FloatMult             0      0.00%     59.47% # Class of committed instruction
system.cpu.commit.op_class_0::FloatMultAcc            0      0.00%     59.47% # Class of committed instruction
system.cpu.commit.op_class_0::FloatDiv              0      0.00%     59.47% # Class of committed instruction
system.cpu.commit.op_class_0::FloatMisc             0      0.00%     59.47% # Class of committed instruction
system.cpu.commit.op_class_0::FloatSqrt             0      0.00%     59.47% # Class of committed instruction
system.cpu.commit.op_class_0::SimdAdd             511      0.00%     59.47% # Class of committed instruction
system.cpu.commit.op_class_0::SimdAddAcc            0      0.00%     59.47% # Class of committed instruction
system.cpu.commit.op_class_0::SimdAlu             908      0.00%     59.47% # Class of committed instruction
system.cpu.commit.op_class_0::SimdCmp             808      0.00%     59.47% # Class of committed instruction
system.cpu.commit.op_class_0::SimdCvt               0      0.00%     59.47% # Class of committed instruction
system.cpu.commit.op_class_0::SimdMisc            707      0.00%     59.47% # Class of committed instruction
system.cpu.commit.op_class_0::SimdMult              0      0.00%     59.47% # Class of committed instruction
system.cpu.commit.op_class_0::SimdMultAcc            0      0.00%     59.47% # Class of committed instruction
system.cpu.commit.op_class_0::SimdShift             0      0.00%     59.47% # Class of committed instruction
system.cpu.commit.op_class_0::SimdShiftAcc            0      0.00%     59.47% # Class of committed instruction
system.cpu.commit.op_class_0::SimdSqrt              0      0.00%     59.47% # Class of committed instruction
system.cpu.commit.op_class_0::SimdFloatAdd            0      0.00%     59.47% # Class of committed instruction
system.cpu.commit.op_class_0::SimdFloatAlu            0      0.00%     59.47% # Class of committed instruction
system.cpu.commit.op_class_0::SimdFloatCmp            0      0.00%     59.47% # Class of committed instruction
system.cpu.commit.op_class_0::SimdFloatCvt            0      0.00%     59.47% # Class of committed instruction
system.cpu.commit.op_class_0::SimdFloatDiv            0      0.00%     59.47% # Class of committed instruction
system.cpu.commit.op_class_0::SimdFloatMisc            0      0.00%     59.47% # Class of committed instruction
system.cpu.commit.op_class_0::SimdFloatMult            0      0.00%     59.47% # Class of committed instruction
system.cpu.commit.op_class_0::SimdFloatMultAcc            0      0.00%     59.47% # Class of committed instruction
system.cpu.commit.op_class_0::SimdFloatSqrt            0      0.00%     59.47% # Class of committed instruction
system.cpu.commit.op_class_0::MemRead       133137065     32.66%     92.14% # Class of committed instruction
system.cpu.commit.op_class_0::MemWrite       32055461      7.86%    100.00% # Class of committed instruction
[...]
system.l2.ReadCleanReq_miss_rate::cpu.inst     0.970803                       # miss rate for ReadCleanReq accesses
system.l2.ReadCleanReq_miss_rate::total      0.970803                       # miss rate for ReadCleanReq accesses
system.l2.ReadSharedReq_miss_rate::cpu.data     0.951456                       # miss rate for ReadSharedReq accesses
system.l2.ReadSharedReq_miss_rate::total     0.951456                       # miss rate for ReadSharedReq accesses
system.l2.demand_miss_rate::cpu.inst         0.970803                       # miss rate for demand accesses
system.l2.demand_miss_rate::cpu.data         0.746032                       # miss rate for demand accesses
system.l2.demand_miss_rate::total            0.885370                       # miss rate for demand accesses
system.l2.overall_miss_rate::cpu.inst        0.970803                       # miss rate for overall accesses
system.l2.overall_miss_rate::cpu.data        0.746032                       # miss rate for overall accesses
system.l2.overall_miss_rate::total           0.885370                       # miss rate for overall accesses
system.l2.ReadExReq_avg_miss_latency::cpu.data 120288.888889                       # average ReadExReq miss latency
system.l2.ReadExReq_avg_miss_latency::total 120288.888889                       # average ReadExReq miss latency
system.l2.ReadCleanReq_avg_miss_latency::cpu.inst 83446.115288                       # average ReadCleanReq miss latency
system.l2.ReadCleanReq_avg_miss_latency::total 83446.115288                       # average ReadCleanReq miss latency
system.l2.ReadSharedReq_avg_miss_latency::cpu.data 95760.204082                       # average ReadSharedReq miss latency
system.l2.ReadSharedReq_avg_miss_latency::total 95760.204082                       # average ReadSharedReq miss latency
system.l2.demand_avg_miss_latency::cpu.inst 83446.115288                       # average overall miss latency
system.l2.demand_avg_miss_latency::cpu.data 107502.659574                       # average overall miss latency
system.l2.demand_avg_miss_latency::total 91150.766610                       # average overall miss latency
system.l2.overall_avg_miss_latency::cpu.inst 83446.115288                       # average overall miss latency
system.l2.overall_avg_miss_latency::cpu.data 107502.659574                       # average overall miss latency
system.l2.overall_avg_miss_latency::total 91150.766610                       # average overall miss latency
system.l2.blocked_cycles::no_mshrs                  0                       # number of cycles access was blocked
system.l2.blocked_cycles::no_targets                0                       # number of cycles access was blocked
system.l2.blocked::no_mshrs                         0                       # number of cycles access was blocked
system.l2.blocked::no_targets                       0                       # number of cycles access was blocked
system.l2.avg_blocked_cycles::no_mshrs            nan                       # average number of cycles each access was blocked
system.l2.avg_blocked_cycles::no_targets          nan                       # average number of cycles each access was blocked
system.l2.ReadExReq_mshr_hits::cpu.data             1                       # number of ReadExReq MSHR hits
system.l2.ReadExReq_mshr_hits::total                1                       # number of ReadExReq MSHR hits
system.l2.ReadSharedReq_mshr_hits::cpu.data            2                       # number of ReadSharedReq MSHR hits
system.l2.ReadSharedReq_mshr_hits::total            2                       # number of ReadSharedReq MSHR hits
system.l2.demand_mshr_hits::cpu.data                3                       # number of demand (read+write) MSHR hits
system.l2.demand_mshr_hits::total                   3                       # number of demand (read+write) MSHR hits
system.l2.overall_mshr_hits::cpu.data               3                       # number of overall MSHR hits
system.l2.overall_mshr_hits::total                  3                       # number of overall MSHR hits
system.l2.HardPFReq_mshr_misses::l2.prefetcher          112                       # number of HardPFReq MSHR misses
system.l2.HardPFReq_mshr_misses::total            112                       # number of HardPFReq MSHR misses
system.l2.ReadExReq_mshr_misses::cpu.data           89                       # number of ReadExReq MSHR misses
system.l2.ReadExReq_mshr_misses::total             89                       # number of ReadExReq MSHR misses
system.l2.ReadCleanReq_mshr_misses::cpu.inst          399                       # number of ReadCleanReq MSHR misses
system.l2.ReadCleanReq_mshr_misses::total          399                       # number of ReadCleanReq MSHR misses
system.l2.ReadSharedReq_mshr_misses::cpu.data           96                       # number of ReadSharedReq MSHR misses
system.l2.ReadSharedReq_mshr_misses::total           96                       # number of ReadSharedReq MSHR misses
system.l2.demand_mshr_misses::cpu.inst            399                       # number of demand (read+write) MSHR misses
system.l2.demand_mshr_misses::cpu.data            185                       # number of demand (read+write) MSHR misses
system.l2.demand_mshr_misses::total               584                       # number of demand (read+write) MSHR misses
system.l2.overall_mshr_misses::cpu.inst           399                       # number of overall MSHR misses
system.l2.overall_mshr_misses::cpu.data           185                       # number of overall MSHR misses
system.l2.overall_mshr_misses::l2.prefetcher          112                       # number of overall MSHR misses
system.l2.overall_mshr_misses::total              696                       # number of overall MSHR misses
system.l2.HardPFReq_mshr_miss_latency::l2.prefetcher     16160117                       # number of HardPFReq MSHR miss cycles
system.l2.HardPFReq_mshr_miss_latency::total     16160117                       # number of HardPFReq MSHR miss cycles
system.l2.ReadExReq_mshr_miss_latency::cpu.data     10276500                       # number of ReadExReq MSHR miss cycles
system.l2.ReadExReq_mshr_miss_latency::total     10276500                       # number of ReadExReq MSHR miss cycles
system.l2.ReadCleanReq_mshr_miss_latency::cpu.inst     30901000                       # number of ReadCleanReq MSHR miss cycles
system.l2.ReadCleanReq_mshr_miss_latency::total     30901000                       # number of ReadCleanReq MSHR miss cycles
system.l2.ReadSharedReq_mshr_miss_latency::cpu.data      8655000                       # number of ReadSharedReq MSHR miss cycles
system.l2.ReadSharedReq_mshr_miss_latency::total      8655000                       # number of ReadSharedReq MSHR miss cycles
system.l2.demand_mshr_miss_latency::cpu.inst     30901000                       # number of demand (read+write) MSHR miss cycles
system.l2.demand_mshr_miss_latency::cpu.data     18931500                       # number of demand (read+write) MSHR miss cycles
system.l2.demand_mshr_miss_latency::total     49832500                       # number of demand (read+write) MSHR miss cycles
system.l2.overall_mshr_miss_latency::cpu.inst     30901000                       # number of overall MSHR miss cycles
system.l2.overall_mshr_miss_latency::cpu.data     18931500                       # number of overall MSHR miss cycles
system.l2.overall_mshr_miss_latency::l2.prefetcher     16160117                       # number of overall MSHR miss cycles
system.l2.overall_mshr_miss_latency::total     65992617                       # number of overall MSHR miss cycles
system.l2.HardPFReq_mshr_miss_rate::l2.prefetcher          inf                       # mshr miss rate for HardPFReq accesses
system.l2.HardPFReq_mshr_miss_rate::total          inf                       # mshr miss rate for HardPFReq accesses
system.l2.ReadExReq_mshr_miss_rate::cpu.data     0.597315                       # mshr miss rate for ReadExReq accesses
system.l2.ReadExReq_mshr_miss_rate::total     0.597315                       # mshr miss rate for ReadExReq accesses
system.l2.ReadCleanReq_mshr_miss_rate::cpu.inst     0.970803                       # mshr miss rate for ReadCleanReq accesses
system.l2.ReadCleanReq_mshr_miss_rate::total     0.970803                       # mshr miss rate for ReadCleanReq accesses
system.l2.ReadSharedReq_mshr_miss_rate::cpu.data     0.932039                       # mshr miss rate for ReadSharedReq accesses
system.l2.ReadSharedReq_mshr_miss_rate::total     0.932039                       # mshr miss rate for ReadSharedReq accesses
system.l2.demand_mshr_miss_rate::cpu.inst     0.970803                       # mshr miss rate for demand accesses
system.l2.demand_mshr_miss_rate::cpu.data     0.734127                       # mshr miss rate for demand accesses
system.l2.demand_mshr_miss_rate::total       0.880845                       # mshr miss rate for demand accesses
system.l2.overall_mshr_miss_rate::cpu.inst     0.970803                       # mshr miss rate for overall accesses
system.l2.overall_mshr_miss_rate::cpu.data     0.734127                       # mshr miss rate for overall accesses
system.l2.overall_mshr_miss_rate::l2.prefetcher          inf                       # mshr miss rate for overall accesses
system.l2.overall_mshr_miss_rate::total      1.049774                       # mshr miss rate for overall accesses
system.l2.HardPFReq_avg_mshr_miss_latency::l2.prefetcher 144286.758929                       # average HardPFReq mshr miss latency
system.l2.HardPFReq_avg_mshr_miss_latency::total 144286.758929                       # average HardPFReq mshr miss latency
system.l2.ReadExReq_avg_mshr_miss_latency::cpu.data 115466.292135                       # average ReadExReq mshr miss latency
system.l2.ReadExReq_avg_mshr_miss_latency::total 115466.292135                       # average ReadExReq mshr miss latency
system.l2.ReadCleanReq_avg_mshr_miss_latency::cpu.inst 77446.115288                       # average ReadCleanReq mshr miss latency
system.l2.ReadCleanReq_avg_mshr_miss_latency::total 77446.115288                       # average ReadCleanReq mshr miss latency
system.l2.ReadSharedReq_avg_mshr_miss_latency::cpu.data 90156.250000                       # average ReadSharedReq mshr miss latency
system.l2.ReadSharedReq_avg_mshr_miss_latency::total 90156.250000                       # average ReadSharedReq mshr miss latency
system.l2.demand_avg_mshr_miss_latency::cpu.inst 77446.115288                       # average overall mshr miss latency
system.l2.demand_avg_mshr_miss_latency::cpu.data 102332.432432                       # average overall mshr miss latency
system.l2.demand_avg_mshr_miss_latency::total 85329.623288                       # average overall mshr miss latency
system.l2.overall_avg_mshr_miss_latency::cpu.inst 77446.115288                       # average overall mshr miss latency
system.l2.overall_avg_mshr_miss_latency::cpu.data 102332.432432                       # average overall mshr miss latency
system.l2.overall_avg_mshr_miss_latency::l2.prefetcher 144286.758929                       # average overall mshr miss latency
system.l2.overall_avg_mshr_miss_latency::total 94816.978448                       # average overall mshr miss latency
system.membus.snoop_filter.tot_requests           676                       # Total number of requests made to the snoop filter.
system.membus.snoop_filter.hit_single_requests           14                       # Number of requests hitting in the snoop filter with a single holder of the requested data.
system.membus.snoop_filter.hit_multi_requests            0                       # Number of requests hitting in the snoop filter with multiple (>1) holders of the requested data.
system.membus.snoop_filter.tot_snoops               0                       # Total number of snoops made to the snoop filter.
system.membus.snoop_filter.hit_single_snoops            0                       # Number of snoops hitting in the snoop filter with a single holder of the requested data.
system.membus.snoop_filter.hit_multi_snoops            0                       # Number of snoops hitting in the snoop filter with multiple (>1) holders of the requested data.
system.membus.pwrStateResidencyTicks::UNDEFINED 110447013000                       # Cumulative time (in ticks) in various power states
system.membus.trans_dist::ReadResp                587                       # Transaction distribution
system.membus.trans_dist::ReadExReq                89                       # Transaction distribution
system.membus.trans_dist::ReadExResp               89                       # Transaction distribution
system.membus.trans_dist::ReadSharedReq           587                       # Transaction distribution
system.membus.pkt_count_system.l2.mem_side::system.mem_ctrls.port         1352                       # Packet count per connected master and slave (bytes)
system.membus.pkt_count::total                   1352                       # Packet count per connected master and slave (bytes)
system.membus.pkt_size_system.l2.mem_side::system.mem_ctrls.port        43264                       # Cumulative packet size per connected master and slave (bytes)
system.membus.pkt_size::total                   43264                       # Cumulative packet size per connected master and slave (bytes)
system.membus.snoops                                0                       # Total snoops (count)
system.membus.snoopTraffic                          0                       # Total snoop traffic (bytes)
system.membus.snoop_fanout::samples               676                       # Request fanout histogram
system.membus.snoop_fanout::mean                    0                       # Request fanout histogram
system.membus.snoop_fanout::stdev                   0                       # Request fanout histogram
system.membus.snoop_fanout::underflows              0      0.00%      0.00% # Request fanout histogram
system.membus.snoop_fanout::0                     676    100.00%    100.00% # Request fanout histogram
system.membus.snoop_fanout::1                       0      0.00%    100.00% # Request fanout histogram
system.membus.snoop_fanout::overflows               0      0.00%    100.00% # Request fanout histogram
system.membus.snoop_fanout::min_value               0                       # Request fanout histogram
system.membus.snoop_fanout::max_value               0                       # Request fanout histogram
system.membus.snoop_fanout::total                 676                       # Request fanout histogram
system.membus.reqLayer0.occupancy              846660                       # Layer occupancy (ticks)
system.membus.reqLayer0.utilization               0.0                       # Layer utilization (%)
system.membus.respLayer1.occupancy            3574507                       # Layer occupancy (ticks)
system.membus.respLayer1.utilization              0.0                       # Layer utilization (%)
system.tol2bus.snoop_filter.tot_requests          741                       # Total number of requests made to the snoop filter.
system.tol2bus.snoop_filter.hit_single_requests           90                       # Number of requests hitting in the snoop filter with a single holder of the requested data.
system.tol2bus.snoop_filter.hit_multi_requests            3                       # Number of requests hitting in the snoop filter with multiple (>1) holders of the requested data.
system.tol2bus.snoop_filter.tot_snoops             20                       # Total number of snoops made to the snoop filter.
system.tol2bus.snoop_filter.hit_single_snoops           20                       # Number of snoops hitting in the snoop filter with a single holder of the requested data.
system.tol2bus.snoop_filter.hit_multi_snoops            0                       # Number of snoops hitting in the snoop filter with multiple (>1) holders of the requested data.
system.tol2bus.pwrStateResidencyTicks::UNDEFINED 110447013000                       # Cumulative time (in ticks) in various power states
system.tol2bus.trans_dist::ReadResp               513                       # Transaction distribution
system.tol2bus.trans_dist::WritebackClean           78                       # Transaction distribution
system.tol2bus.trans_dist::HardPFReq              149                       # Transaction distribution
system.tol2bus.trans_dist::ReadExReq              149                       # Transaction distribution
system.tol2bus.trans_dist::ReadExResp             149                       # Transaction distribution
system.tol2bus.trans_dist::ReadCleanReq           411                       # Transaction distribution
system.tol2bus.trans_dist::ReadSharedReq          103                       # Transaction distribution
system.tol2bus.pkt_count_system.cpu.icache.mem_side::system.l2.cpu_side          897                       # Packet count per connected master and slave (bytes)
system.tol2bus.pkt_count_system.cpu.dcache.mem_side::system.l2.cpu_side          506                       # Packet count per connected master and slave (bytes)
system.tol2bus.pkt_count::total                  1403                       # Packet count per connected master and slave (bytes)
system.tol2bus.pkt_size_system.cpu.icache.mem_side::system.l2.cpu_side        31104                       # Cumulative packet size per connected master and slave (bytes)
system.tol2bus.pkt_size_system.cpu.dcache.mem_side::system.l2.cpu_side        16256                       # Cumulative packet size per connected master and slave (bytes)
system.tol2bus.pkt_size::total                  47360                       # Cumulative packet size per connected master and slave (bytes)
system.tol2bus.snoops                             149                       # Total snoops (count)
system.tol2bus.snoopTraffic                         0                       # Total snoop traffic (bytes)
system.tol2bus.snoop_fanout::samples              812                       # Request fanout histogram
system.tol2bus.snoop_fanout::mean            0.043103                       # Request fanout histogram
system.tol2bus.snoop_fanout::stdev           0.203215                       # Request fanout histogram
system.tol2bus.snoop_fanout::underflows             0      0.00%      0.00% # Request fanout histogram
system.tol2bus.snoop_fanout::0                    777     95.69%     95.69% # Request fanout histogram
system.tol2bus.snoop_fanout::1                     35      4.31%    100.00% # Request fanout histogram
system.tol2bus.snoop_fanout::2                      0      0.00%    100.00% # Request fanout histogram
system.tol2bus.snoop_fanout::3                      0      0.00%    100.00% # Request fanout histogram
system.tol2bus.snoop_fanout::4                      0      0.00%    100.00% # Request fanout histogram
system.tol2bus.snoop_fanout::overflows              0      0.00%    100.00% # Request fanout histogram
system.tol2bus.snoop_fanout::min_value              0                       # Request fanout histogram
system.tol2bus.snoop_fanout::max_value              1                       # Request fanout histogram
system.tol2bus.snoop_fanout::total                812                       # Request fanout histogram
system.tol2bus.reqLayer0.occupancy             448500                       # Layer occupancy (ticks)
system.tol2bus.reqLayer0.utilization              0.0                       # Layer utilization (%)
system.tol2bus.respLayer0.occupancy            615000                       # Layer occupancy (ticks)
system.tol2bus.respLayer0.utilization             0.0                       # Layer utilization (%)
system.tol2bus.respLayer1.occupancy            378499                       # Layer occupancy (ticks)
system.tol2bus.respLayer1.utilization             0.0                       # Layer utilization (%)

---------- End Simulation Statistics   ----------
