
---------- Begin Simulation Statistics ----------
sim_seconds                                  0.080283                       # Number of seconds simulated
sim_ticks                                 80283053500                       # Number of ticks simulated
final_tick                                80303238000                       # Number of ticks from beginning of simulation (restored from checkpoints and never reset)
sim_freq                                 1000000000000                       # Frequency of simulated ticks
host_inst_rate                                 209728                       # Simulator instruction rate (inst/s)
host_op_rate                                   209729                       # Simulator op (including micro ops) rate (op/s)
host_tick_rate                              111503556                       # Simulator tick rate (ticks/s)
host_mem_usage                                 671220                       # Number of bytes of host memory used
host_seconds                                   720.00                       # Real time elapsed on the host
sim_insts                                   151004962                       # Number of instructions simulated
sim_ops                                     151006106                       # Number of ops (including micro ops) simulated
system.voltage_domain.voltage                       1                       # Voltage in Volts
system.clk_domain.clock                          1000                       # Clock period in ticks
system.mem_ctrls.pwrStateResidencyTicks::UNDEFINED  80303238000                       # Cumulative time (in ticks) in various power states
system.mem_ctrls.bytes_read::cpu.inst            3904                       # Number of bytes read from this memory
system.mem_ctrls.bytes_read::cpu.data             960                       # Number of bytes read from this memory
system.mem_ctrls.bytes_read::total               4864                       # Number of bytes read from this memory
system.mem_ctrls.bytes_inst_read::cpu.inst         3904                       # Number of instructions bytes read from this memory
system.mem_ctrls.bytes_inst_read::total          3904                       # Number of instructions bytes read from this memory
system.mem_ctrls.num_reads::cpu.inst               61                       # Number of read requests responded to by this memory
system.mem_ctrls.num_reads::cpu.data               15                       # Number of read requests responded to by this memory
system.mem_ctrls.num_reads::total                  76                       # Number of read requests responded to by this memory
system.mem_ctrls.bw_read::cpu.inst              48628                       # Total read bandwidth from this memory (bytes/s)
system.mem_ctrls.bw_read::cpu.data              11958                       # Total read bandwidth from this memory (bytes/s)
system.mem_ctrls.bw_read::total                 60586                       # Total read bandwidth from this memory (bytes/s)
system.mem_ctrls.bw_inst_read::cpu.inst         48628                       # Instruction read bandwidth from this memory (bytes/s)
system.mem_ctrls.bw_inst_read::total            48628                       # Instruction read bandwidth from this memory (bytes/s)
system.mem_ctrls.bw_total::cpu.inst             48628                       # Total bandwidth to/from this memory (bytes/s)
system.mem_ctrls.bw_total::cpu.data             11958                       # Total bandwidth to/from this memory (bytes/s)
system.mem_ctrls.bw_total::total                60586                       # Total bandwidth to/from this memory (bytes/s)
system.mem_ctrls.readReqs                          76                       # Number of read requests accepted
system.mem_ctrls.writeReqs                          0                       # Number of write requests accepted
system.mem_ctrls.readBursts                        76                       # Number of DRAM read bursts, including those serviced by the write queue
system.mem_ctrls.writeBursts                        0                       # Number of DRAM write bursts, including those merged in the write queue
system.mem_ctrls.bytesReadDRAM                   4864                       # Total number of bytes read from DRAM
system.mem_ctrls.bytesReadWrQ                       0                       # Total number of bytes read from write queue
system.mem_ctrls.bytesWritten                       0                       # Total number of bytes written to DRAM
system.mem_ctrls.bytesReadSys                    4864                       # Total read bytes from the system interface side
system.mem_ctrls.bytesWrittenSys                    0                       # Total written bytes from the system interface side
system.mem_ctrls.servicedByWrQ                      0                       # Number of DRAM read bursts serviced by the write queue
system.mem_ctrls.mergedWrBursts                     0                       # Number of DRAM write bursts merged with an existing one
system.mem_ctrls.neitherReadNorWriteReqs            0                       # Number of requests that are neither read nor write
system.mem_ctrls.perBankRdBursts::0                 8                       # Per bank write bursts
system.mem_ctrls.perBankRdBursts::1                 0                       # Per bank write bursts
system.mem_ctrls.perBankRdBursts::2                 2                       # Per bank write bursts
system.mem_ctrls.perBankRdBursts::3                 6                       # Per bank write bursts
system.mem_ctrls.perBankRdBursts::4                10                       # Per bank write bursts
system.mem_ctrls.perBankRdBursts::5                 6                       # Per bank write bursts
system.mem_ctrls.perBankRdBursts::6                19                       # Per bank write bursts
system.mem_ctrls.perBankRdBursts::7                 0                       # Per bank write bursts
system.mem_ctrls.perBankRdBursts::8                 0                       # Per bank write bursts
system.mem_ctrls.perBankRdBursts::9                 2                       # Per bank write bursts
system.mem_ctrls.perBankRdBursts::10                0                       # Per bank write bursts
system.mem_ctrls.perBankRdBursts::11                7                       # Per bank write bursts
system.mem_ctrls.perBankRdBursts::12                1                       # Per bank write bursts
system.mem_ctrls.perBankRdBursts::13                0                       # Per bank write bursts
system.mem_ctrls.perBankRdBursts::14                5                       # Per bank write bursts
system.mem_ctrls.perBankRdBursts::15               10                       # Per bank write bursts
system.mem_ctrls.perBankWrBursts::0                 0                       # Per bank write bursts
system.mem_ctrls.perBankWrBursts::1                 0                       # Per bank write bursts
system.mem_ctrls.perBankWrBursts::2                 0                       # Per bank write bursts
system.mem_ctrls.perBankWrBursts::3                 0                       # Per bank write bursts
system.mem_ctrls.perBankWrBursts::4                 0                       # Per bank write bursts
system.mem_ctrls.perBankWrBursts::5                 0                       # Per bank write bursts
system.mem_ctrls.perBankWrBursts::6                 0                       # Per bank write bursts
system.mem_ctrls.perBankWrBursts::7                 0                       # Per bank write bursts
system.mem_ctrls.perBankWrBursts::8                 0                       # Per bank write bursts
system.mem_ctrls.perBankWrBursts::9                 0                       # Per bank write bursts
system.mem_ctrls.perBankWrBursts::10                0                       # Per bank write bursts
system.mem_ctrls.perBankWrBursts::11                0                       # Per bank write bursts
system.mem_ctrls.perBankWrBursts::12                0                       # Per bank write bursts
system.mem_ctrls.perBankWrBursts::13                0                       # Per bank write bursts
system.mem_ctrls.perBankWrBursts::14                0                       # Per bank write bursts
system.mem_ctrls.perBankWrBursts::15                0                       # Per bank write bursts
system.mem_ctrls.numRdRetry                         0                       # Number of times read queue was full causing retry
system.mem_ctrls.numWrRetry                         0                       # Number of times write queue was full causing retry
system.mem_ctrls.totGap                   80283034500                       # Total gap between requests
system.mem_ctrls.readPktSize::0                     0                       # Read request sizes (log2)
system.mem_ctrls.readPktSize::1                     0                       # Read request sizes (log2)
system.mem_ctrls.readPktSize::2                     0                       # Read request sizes (log2)
system.mem_ctrls.readPktSize::3                     0                       # Read request sizes (log2)
system.mem_ctrls.readPktSize::4                     0                       # Read request sizes (log2)
system.mem_ctrls.readPktSize::5                     0                       # Read request sizes (log2)
system.mem_ctrls.readPktSize::6                    76                       # Read request sizes (log2)
system.mem_ctrls.writePktSize::0                    0                       # Write request sizes (log2)
system.mem_ctrls.writePktSize::1                    0                       # Write request sizes (log2)
system.mem_ctrls.writePktSize::2                    0                       # Write request sizes (log2)
system.mem_ctrls.writePktSize::3                    0                       # Write request sizes (log2)
system.mem_ctrls.writePktSize::4                    0                       # Write request sizes (log2)
system.mem_ctrls.writePktSize::5                    0                       # Write request sizes (log2)
system.mem_ctrls.writePktSize::6                    0                       # Write request sizes (log2)
system.mem_ctrls.rdQLenPdf::0                      42                       # What read queue length does an incoming req see
system.mem_ctrls.rdQLenPdf::1                      26                       # What read queue length does an incoming req see
system.mem_ctrls.rdQLenPdf::2                       7                       # What read queue length does an incoming req see
system.mem_ctrls.rdQLenPdf::3                       1                       # What read queue length does an incoming req see
system.mem_ctrls.rdQLenPdf::4                       0                       # What read queue length does an incoming req see
system.mem_ctrls.rdQLenPdf::5                       0                       # What read queue length does an incoming req see
system.mem_ctrls.rdQLenPdf::6                       0                       # What read queue length does an incoming req see
system.mem_ctrls.rdQLenPdf::7                       0                       # What read queue length does an incoming req see
system.mem_ctrls.rdQLenPdf::8                       0                       # What read queue length does an incoming req see
system.mem_ctrls.rdQLenPdf::9                       0                       # What read queue length does an incoming req see
system.mem_ctrls.rdQLenPdf::10                      0                       # What read queue length does an incoming req see
system.mem_ctrls.rdQLenPdf::11                      0                       # What read queue length does an incoming req see
system.mem_ctrls.rdQLenPdf::12                      0                       # What read queue length does an incoming req see
system.mem_ctrls.rdQLenPdf::13                      0                       # What read queue length does an incoming req see
system.mem_ctrls.rdQLenPdf::14                      0                       # What read queue length does an incoming req see
system.mem_ctrls.rdQLenPdf::15                      0                       # What read queue length does an incoming req see
system.mem_ctrls.rdQLenPdf::16                      0                       # What read queue length does an incoming req see
system.mem_ctrls.rdQLenPdf::17                      0                       # What read queue length does an incoming req see
system.mem_ctrls.rdQLenPdf::18                      0                       # What read queue length does an incoming req see
system.mem_ctrls.rdQLenPdf::19                      0                       # What read queue length does an incoming req see
system.mem_ctrls.rdQLenPdf::20                      0                       # What read queue length does an incoming req see
system.mem_ctrls.rdQLenPdf::21                      0                       # What read queue length does an incoming req see
system.mem_ctrls.rdQLenPdf::22                      0                       # What read queue length does an incoming req see
system.mem_ctrls.rdQLenPdf::23                      0                       # What read queue length does an incoming req see
system.mem_ctrls.rdQLenPdf::24                      0                       # What read queue length does an incoming req see
system.mem_ctrls.rdQLenPdf::25                      0                       # What read queue length does an incoming req see
system.mem_ctrls.rdQLenPdf::26                      0                       # What read queue length does an incoming req see
system.mem_ctrls.rdQLenPdf::27                      0                       # What read queue length does an incoming req see
system.mem_ctrls.rdQLenPdf::28                      0                       # What read queue length does an incoming req see
system.mem_ctrls.rdQLenPdf::29                      0                       # What read queue length does an incoming req see
system.mem_ctrls.rdQLenPdf::30                      0                       # What read queue length does an incoming req see
system.mem_ctrls.rdQLenPdf::31                      0                       # What read queue length does an incoming req see
system.mem_ctrls.wrQLenPdf::0                       0                       # What write queue length does an incoming req see
system.mem_ctrls.wrQLenPdf::1                       0                       # What write queue length does an incoming req see
system.mem_ctrls.wrQLenPdf::2                       0                       # What write queue length does an incoming req see
system.mem_ctrls.wrQLenPdf::3                       0                       # What write queue length does an incoming req see
system.mem_ctrls.wrQLenPdf::4                       0                       # What write queue length does an incoming req see
system.mem_ctrls.wrQLenPdf::5                       0                       # What write queue length does an incoming req see
system.mem_ctrls.wrQLenPdf::6                       0                       # What write queue length does an incoming req see
system.mem_ctrls.wrQLenPdf::7                       0                       # What write queue length does an incoming req see
system.mem_ctrls.wrQLenPdf::8                       0                       # What write queue length does an incoming req see
system.mem_ctrls.wrQLenPdf::9                       0                       # What write queue length does an incoming req see
system.mem_ctrls.wrQLenPdf::10                      0                       # What write queue length does an incoming req see
system.mem_ctrls.wrQLenPdf::11                      0                       # What write queue length does an incoming req see
system.mem_ctrls.wrQLenPdf::12                      0                       # What write queue length does an incoming req see
system.mem_ctrls.wrQLenPdf::13                      0                       # What write queue length does an incoming req see
system.mem_ctrls.wrQLenPdf::14                      0                       # What write queue length does an incoming req see
system.mem_ctrls.wrQLenPdf::15                      0                       # What write queue length does an incoming req see
system.mem_ctrls.wrQLenPdf::16                      0                       # What write queue length does an incoming req see
system.mem_ctrls.wrQLenPdf::17                      0                       # What write queue length does an incoming req see
system.mem_ctrls.wrQLenPdf::18                      0                       # What write queue length does an incoming req see
system.mem_ctrls.wrQLenPdf::19                      0                       # What write queue length does an incoming req see
system.mem_ctrls.wrQLenPdf::20                      0                       # What write queue length does an incoming req see
system.mem_ctrls.wrQLenPdf::21                      0                       # What write queue length does an incoming req see
system.mem_ctrls.wrQLenPdf::22                      0                       # What write queue length does an incoming req see
system.mem_ctrls.wrQLenPdf::23                      0                       # What write queue length does an incoming req see
system.mem_ctrls.wrQLenPdf::24                      0                       # What write queue length does an incoming req see
system.mem_ctrls.wrQLenPdf::25                      0                       # What write queue length does an incoming req see
system.mem_ctrls.wrQLenPdf::26                      0                       # What write queue length does an incoming req see
system.mem_ctrls.wrQLenPdf::27                      0                       # What write queue length does an incoming req see
system.mem_ctrls.wrQLenPdf::28                      0                       # What write queue length does an incoming req see
system.mem_ctrls.wrQLenPdf::29                      0                       # What write queue length does an incoming req see
system.mem_ctrls.wrQLenPdf::30                      0                       # What write queue length does an incoming req see
system.mem_ctrls.wrQLenPdf::31                      0                       # What write queue length does an incoming req see
system.mem_ctrls.wrQLenPdf::32                      0                       # What write queue length does an incoming req see
system.mem_ctrls.wrQLenPdf::33                      0                       # What write queue length does an incoming req see
system.mem_ctrls.wrQLenPdf::34                      0                       # What write queue length does an incoming req see
system.mem_ctrls.wrQLenPdf::35                      0                       # What write queue length does an incoming req see
system.mem_ctrls.wrQLenPdf::36                      0                       # What write queue length does an incoming req see
system.mem_ctrls.wrQLenPdf::37                      0                       # What write queue length does an incoming req see
system.mem_ctrls.wrQLenPdf::38                      0                       # What write queue length does an incoming req see
system.mem_ctrls.wrQLenPdf::39                      0                       # What write queue length does an incoming req see
system.mem_ctrls.wrQLenPdf::40                      0                       # What write queue length does an incoming req see
system.mem_ctrls.wrQLenPdf::41                      0                       # What write queue length does an incoming req see
system.mem_ctrls.wrQLenPdf::42                      0                       # What write queue length does an incoming req see
system.mem_ctrls.wrQLenPdf::43                      0                       # What write queue length does an incoming req see
system.mem_ctrls.wrQLenPdf::44                      0                       # What write queue length does an incoming req see
system.mem_ctrls.wrQLenPdf::45                      0                       # What write queue length does an incoming req see
system.mem_ctrls.wrQLenPdf::46                      0                       # What write queue length does an incoming req see
system.mem_ctrls.wrQLenPdf::47                      0                       # What write queue length does an incoming req see
system.mem_ctrls.wrQLenPdf::48                      0                       # What write queue length does an incoming req see
system.mem_ctrls.wrQLenPdf::49                      0                       # What write queue length does an incoming req see
system.mem_ctrls.wrQLenPdf::50                      0                       # What write queue length does an incoming req see
system.mem_ctrls.wrQLenPdf::51                      0                       # What write queue length does an incoming req see
system.mem_ctrls.wrQLenPdf::52                      0                       # What write queue length does an incoming req see
system.mem_ctrls.wrQLenPdf::53                      0                       # What write queue length does an incoming req see
system.mem_ctrls.wrQLenPdf::54                      0                       # What write queue length does an incoming req see
system.mem_ctrls.wrQLenPdf::55                      0                       # What write queue length does an incoming req see
system.mem_ctrls.wrQLenPdf::56                      0                       # What write queue length does an incoming req see
system.mem_ctrls.wrQLenPdf::57                      0                       # What write queue length does an incoming req see
system.mem_ctrls.wrQLenPdf::58                      0                       # What write queue length does an incoming req see
system.mem_ctrls.wrQLenPdf::59                      0                       # What write queue length does an incoming req see
system.mem_ctrls.wrQLenPdf::60                      0                       # What write queue length does an incoming req see
system.mem_ctrls.wrQLenPdf::61                      0                       # What write queue length does an incoming req see
system.mem_ctrls.wrQLenPdf::62                      0                       # What write queue length does an incoming req see
system.mem_ctrls.wrQLenPdf::63                      0                       # What write queue length does an incoming req see
system.mem_ctrls.bytesPerActivate::samples           18                       # Bytes accessed per row activation
system.mem_ctrls.bytesPerActivate::mean    259.555556                       # Bytes accessed per row activation
system.mem_ctrls.bytesPerActivate::gmean   181.680931                       # Bytes accessed per row activation
system.mem_ctrls.bytesPerActivate::stdev   262.020705                       # Bytes accessed per row activation
system.mem_ctrls.bytesPerActivate::0-127            4     22.22%     22.22% # Bytes accessed per row activation
system.mem_ctrls.bytesPerActivate::128-255            9     50.00%     72.22% # Bytes accessed per row activation
system.mem_ctrls.bytesPerActivate::256-383            1      5.56%     77.78% # Bytes accessed per row activation
system.mem_ctrls.bytesPerActivate::384-511            1      5.56%     83.33% # Bytes accessed per row activation
system.mem_ctrls.bytesPerActivate::512-639            1      5.56%     88.89% # Bytes accessed per row activation
system.mem_ctrls.bytesPerActivate::768-895            1      5.56%     94.44% # Bytes accessed per row activation
system.mem_ctrls.bytesPerActivate::1024-1151            1      5.56%    100.00% # Bytes accessed per row activation
system.mem_ctrls.bytesPerActivate::total           18                       # Bytes accessed per row activation
system.mem_ctrls.totQLat                      2115000                       # Total ticks spent queuing
system.mem_ctrls.totMemAccLat                 3540000                       # Total ticks spent from burst creation until serviced by the DRAM
system.mem_ctrls.totBusLat                     380000                       # Total ticks spent in databus transfers
system.mem_ctrls.avgQLat                     27828.95                       # Average queueing delay per DRAM burst
system.mem_ctrls.avgBusLat                    5000.00                       # Average bus latency per DRAM burst
system.mem_ctrls.avgMemAccLat                46578.95                       # Average memory access latency per DRAM burst
system.mem_ctrls.avgRdBW                         0.06                       # Average DRAM read bandwidth in MiByte/s
system.mem_ctrls.avgWrBW                         0.00                       # Average achieved write bandwidth in MiByte/s
system.mem_ctrls.avgRdBWSys                      0.06                       # Average system read bandwidth in MiByte/s
system.mem_ctrls.avgWrBWSys                      0.00                       # Average system write bandwidth in MiByte/s
system.mem_ctrls.peakBW                      12800.00                       # Theoretical peak bandwidth in MiByte/s
system.mem_ctrls.busUtil                         0.00                       # Data bus utilization in percentage
system.mem_ctrls.busUtilRead                     0.00                       # Data bus utilization in percentage for reads
system.mem_ctrls.busUtilWrite                    0.00                       # Data bus utilization in percentage for writes
system.mem_ctrls.avgRdQLen                       1.00                       # Average read queue length when enqueuing
system.mem_ctrls.avgWrQLen                       0.00                       # Average write queue length when enqueuing
system.mem_ctrls.readRowHits                       58                       # Number of row buffer hits during reads
system.mem_ctrls.writeRowHits                       0                       # Number of row buffer hits during writes
system.mem_ctrls.readRowHitRate                 76.32                       # Row buffer hit rate for reads
system.mem_ctrls.writeRowHitRate                  nan                       # Row buffer hit rate for writes
system.mem_ctrls.avgGap                  1056355717.11                       # Average gap between requests
system.mem_ctrls.pageHitRate                    76.32                       # Row buffer hit rate, read and write combined
system.mem_ctrls_0.actEnergy                   464100                       # Energy for activate commands per rank (pJ)
system.mem_ctrls_0.preEnergy                   223905                       # Energy for precharge commands per rank (pJ)
system.mem_ctrls_0.readEnergy                 2163420                       # Energy for read commands per rank (pJ)
system.mem_ctrls_0.writeEnergy                      0                       # Energy for write commands per rank (pJ)
system.mem_ctrls_0.refreshEnergy         3073200.000000                       # Energy for refresh commands per rank (pJ)
system.mem_ctrls_0.actBackEnergy              4155300                       # Energy for active background per rank (pJ)
system.mem_ctrls_0.preBackEnergy               153600                       # Energy for precharge background per rank (pJ)
system.mem_ctrls_0.actPowerDownEnergy         8522070                       # Energy for active power-down per rank (pJ)
system.mem_ctrls_0.prePowerDownEnergy         2882880                       # Energy for precharge power-down per rank (pJ)
system.mem_ctrls_0.selfRefreshEnergy      19264759440                       # Energy for self refresh per rank (pJ)
system.mem_ctrls_0.totalEnergy            19286397915                       # Total energy per rank (pJ)
system.mem_ctrls_0.averagePower            240.169615                       # Core power per rank (mW)
system.mem_ctrls_0.totalIdleTime          80280581500                       # Total Idle time Per DRAM Rank
system.mem_ctrls_0.memoryStateTime::IDLE       270000                       # Time in different power states
system.mem_ctrls_0.memoryStateTime::REF        786000                       # Time in different power states
system.mem_ctrls_0.memoryStateTime::SREF  80267529500                       # Time in different power states
system.mem_ctrls_0.memoryStateTime::PRE_PDN      7506500                       # Time in different power states
system.mem_ctrls_0.memoryStateTime::ACT       1360500                       # Time in different power states
system.mem_ctrls_0.memoryStateTime::ACT_PDN      5643250                       # Time in different power states
system.mem_ctrls_1.actEnergy                   328440                       # Energy for activate commands per rank (pJ)
system.mem_ctrls_1.preEnergy                   155595                       # Energy for precharge commands per rank (pJ)
system.mem_ctrls_1.readEnergy                 1742160                       # Energy for read commands per rank (pJ)
system.mem_ctrls_1.writeEnergy                      0                       # Energy for write commands per rank (pJ)
system.mem_ctrls_1.refreshEnergy         3073200.000000                       # Energy for refresh commands per rank (pJ)
system.mem_ctrls_1.actBackEnergy              3245010                       # Energy for active background per rank (pJ)
system.mem_ctrls_1.preBackEnergy               277920                       # Energy for precharge background per rank (pJ)
system.mem_ctrls_1.actPowerDownEnergy         8316870                       # Energy for active power-down per rank (pJ)
system.mem_ctrls_1.prePowerDownEnergy         3368160                       # Energy for precharge power-down per rank (pJ)
system.mem_ctrls_1.selfRefreshEnergy      19264965540                       # Energy for self refresh per rank (pJ)
system.mem_ctrls_1.totalEnergy            19285472895                       # Total energy per rank (pJ)
system.mem_ctrls_1.averagePower            240.158096                       # Core power per rank (mW)
system.mem_ctrls_1.totalIdleTime          80282448750                       # Total Idle time Per DRAM Rank
system.mem_ctrls_1.memoryStateTime::IDLE       270000                       # Time in different power states
system.mem_ctrls_1.memoryStateTime::REF        786000                       # Time in different power states
system.mem_ctrls_1.memoryStateTime::SREF  80268388000                       # Time in different power states
system.mem_ctrls_1.memoryStateTime::PRE_PDN      7506500                       # Time in different power states
system.mem_ctrls_1.memoryStateTime::ACT        573750                       # Time in different power states
system.mem_ctrls_1.memoryStateTime::ACT_PDN      6621500                       # Time in different power states
system.pwrStateResidencyTicks::UNDEFINED  80303238000                       # Cumulative time (in ticks) in various power states
system.cpu.branchPred.lookups                46006259                       # Number of BP lookups
system.cpu.branchPred.condPredicted          30640373                       # Number of conditional branches predicted
system.cpu.branchPred.condIncorrect           1091398                       # Number of conditional branches incorrect
system.cpu.branchPred.BTBLookups             30453228                       # Number of BTB lookups
system.cpu.branchPred.BTBHits                30452807                       # Number of BTB hits
system.cpu.branchPred.BTBCorrect                    0                       # Number of correct BTB predictions (this stat may not work properly.
system.cpu.branchPred.BTBHitPct             99.998618                       # BTB Hit Percentage
system.cpu.branchPred.usedRAS                      34                       # Number of times the RAS was used to get a target.
system.cpu.branchPred.RASInCorrect                  0                       # Number of incorrect RAS predictions.
system.cpu.branchPred.indirectLookups              27                       # Number of indirect predictor lookups.
system.cpu.branchPred.indirectHits                  0                       # Number of indirect target hits.
system.cpu.branchPred.indirectMisses               27                       # Number of indirect misses.
system.cpu.branchPredindirectMispredicted            8                       # Number of mispredicted indirect branches.
system.cpu.branchPred.allExpertsWrong           91008                       # Number of times all experts voted incorrectly.
system.cpu.branchPred.allExpertsRight        17947918                       # Number of times all experts voted correctly.
system.cpu.branchPred.lowWeightExpertsWon           17                       # Number of times where lower weighted experts overrode the highest weight expert.
system.cpu.branchPred.oneCorrectExpert        1000193                       # Number of times when there is a single correct expert on a mispredict.
system.cpu.branchPred.twoCorrectExpert            129                       # Number of times when there are two correct experts on a mispredict.
system.cpu.branchPred.threeCorrectExpert            0                       # Number of times when there are three correct experts on a mispredict.
system.cpu_voltage_domain.voltage                   1                       # Voltage in Volts
system.cpu_clk_domain.clock                       500                       # Clock period in ticks
system.cpu.dstage2_mmu.stage2_tlb.walker.pwrStateResidencyTicks::UNDEFINED  80303238000                       # Cumulative time (in ticks) in various power states
system.cpu.dstage2_mmu.stage2_tlb.walker.walks            0                       # Table walker walks requested
system.cpu.dstage2_mmu.stage2_tlb.walker.walkRequestOrigin_Requested::Data            0                       # Table walker requests started/completed, data/inst
system.cpu.dstage2_mmu.stage2_tlb.walker.walkRequestOrigin_Requested::Inst            0                       # Table walker requests started/completed, data/inst
system.cpu.dstage2_mmu.stage2_tlb.walker.walkRequestOrigin_Requested::total            0                       # Table walker requests started/completed, data/inst
system.cpu.dstage2_mmu.stage2_tlb.walker.walkRequestOrigin_Completed::Data            0                       # Table walker requests started/completed, data/inst
system.cpu.dstage2_mmu.stage2_tlb.walker.walkRequestOrigin_Completed::Inst            0                       # Table walker requests started/completed, data/inst
system.cpu.dstage2_mmu.stage2_tlb.walker.walkRequestOrigin_Completed::total            0                       # Table walker requests started/completed, data/inst
system.cpu.dstage2_mmu.stage2_tlb.walker.walkRequestOrigin::total            0                       # Table walker requests started/completed, data/inst
system.cpu.dstage2_mmu.stage2_tlb.inst_hits            0                       # ITB inst hits
system.cpu.dstage2_mmu.stage2_tlb.inst_misses            0                       # ITB inst misses
system.cpu.dstage2_mmu.stage2_tlb.read_hits            0                       # DTB read hits
system.cpu.dstage2_mmu.stage2_tlb.read_misses            0                       # DTB read misses
system.cpu.dstage2_mmu.stage2_tlb.write_hits            0                       # DTB write hits
system.cpu.dstage2_mmu.stage2_tlb.write_misses            0                       # DTB write misses
system.cpu.dstage2_mmu.stage2_tlb.flush_tlb            0                       # Number of times complete TLB was flushed
system.cpu.dstage2_mmu.stage2_tlb.flush_tlb_mva            0                       # Number of times TLB was flushed by MVA
system.cpu.dstage2_mmu.stage2_tlb.flush_tlb_mva_asid            0                       # Number of times TLB was flushed by MVA & ASID
system.cpu.dstage2_mmu.stage2_tlb.flush_tlb_asid            0                       # Number of times TLB was flushed by ASID
system.cpu.dstage2_mmu.stage2_tlb.flush_entries            0                       # Number of entries that have been flushed from TLB
system.cpu.dstage2_mmu.stage2_tlb.align_faults            0                       # Number of TLB faults due to alignment restrictions
system.cpu.dstage2_mmu.stage2_tlb.prefetch_faults            0                       # Number of TLB faults due to prefetch
system.cpu.dstage2_mmu.stage2_tlb.domain_faults            0                       # Number of TLB faults due to domain restrictions
system.cpu.dstage2_mmu.stage2_tlb.perms_faults            0                       # Number of TLB faults due to permissions restrictions
system.cpu.dstage2_mmu.stage2_tlb.read_accesses            0                       # DTB read accesses
system.cpu.dstage2_mmu.stage2_tlb.write_accesses            0                       # DTB write accesses
system.cpu.dstage2_mmu.stage2_tlb.inst_accesses            0                       # ITB inst accesses
system.cpu.dstage2_mmu.stage2_tlb.hits              0                       # DTB hits
system.cpu.dstage2_mmu.stage2_tlb.misses            0                       # DTB misses
system.cpu.dstage2_mmu.stage2_tlb.accesses            0                       # DTB accesses
system.cpu.dtb.walker.pwrStateResidencyTicks::UNDEFINED  80303238000                       # Cumulative time (in ticks) in various power states
system.cpu.dtb.walker.walks                         0                       # Table walker walks requested
system.cpu.dtb.walker.walkRequestOrigin_Requested::Data            0                       # Table walker requests started/completed, data/inst
system.cpu.dtb.walker.walkRequestOrigin_Requested::Inst            0                       # Table walker requests started/completed, data/inst
system.cpu.dtb.walker.walkRequestOrigin_Requested::total            0                       # Table walker requests started/completed, data/inst
system.cpu.dtb.walker.walkRequestOrigin_Completed::Data            0                       # Table walker requests started/completed, data/inst
system.cpu.dtb.walker.walkRequestOrigin_Completed::Inst            0                       # Table walker requests started/completed, data/inst
system.cpu.dtb.walker.walkRequestOrigin_Completed::total            0                       # Table walker requests started/completed, data/inst
system.cpu.dtb.walker.walkRequestOrigin::total            0                       # Table walker requests started/completed, data/inst
system.cpu.dtb.inst_hits                            0                       # ITB inst hits
system.cpu.dtb.inst_misses                          0                       # ITB inst misses
system.cpu.dtb.read_hits                            0                       # DTB read hits
system.cpu.dtb.read_misses                          0                       # DTB read misses
system.cpu.dtb.write_hits                           0                       # DTB write hits
system.cpu.dtb.write_misses                         0                       # DTB write misses
system.cpu.dtb.flush_tlb                            0                       # Number of times complete TLB was flushed
system.cpu.dtb.flush_tlb_mva                        0                       # Number of times TLB was flushed by MVA
system.cpu.dtb.flush_tlb_mva_asid                   0                       # Number of times TLB was flushed by MVA & ASID
system.cpu.dtb.flush_tlb_asid                       0                       # Number of times TLB was flushed by ASID
system.cpu.dtb.flush_entries                        0                       # Number of entries that have been flushed from TLB
system.cpu.dtb.align_faults                         0                       # Number of TLB faults due to alignment restrictions
system.cpu.dtb.prefetch_faults                      0                       # Number of TLB faults due to prefetch
system.cpu.dtb.domain_faults                        0                       # Number of TLB faults due to domain restrictions
system.cpu.dtb.perms_faults                         0                       # Number of TLB faults due to permissions restrictions
system.cpu.dtb.read_accesses                        0                       # DTB read accesses
system.cpu.dtb.write_accesses                       0                       # DTB write accesses
system.cpu.dtb.inst_accesses                        0                       # ITB inst accesses
system.cpu.dtb.hits                                 0                       # DTB hits
system.cpu.dtb.misses                               0                       # DTB misses
system.cpu.dtb.accesses                             0                       # DTB accesses
system.cpu.istage2_mmu.stage2_tlb.walker.pwrStateResidencyTicks::UNDEFINED  80303238000                       # Cumulative time (in ticks) in various power states
system.cpu.istage2_mmu.stage2_tlb.walker.walks            0                       # Table walker walks requested
system.cpu.istage2_mmu.stage2_tlb.walker.walkRequestOrigin_Requested::Data            0                       # Table walker requests started/completed, data/inst
system.cpu.istage2_mmu.stage2_tlb.walker.walkRequestOrigin_Requested::Inst            0                       # Table walker requests started/completed, data/inst
system.cpu.istage2_mmu.stage2_tlb.walker.walkRequestOrigin_Requested::total            0                       # Table walker requests started/completed, data/inst
system.cpu.istage2_mmu.stage2_tlb.walker.walkRequestOrigin_Completed::Data            0                       # Table walker requests started/completed, data/inst
system.cpu.istage2_mmu.stage2_tlb.walker.walkRequestOrigin_Completed::Inst            0                       # Table walker requests started/completed, data/inst
system.cpu.istage2_mmu.stage2_tlb.walker.walkRequestOrigin_Completed::total            0                       # Table walker requests started/completed, data/inst
system.cpu.istage2_mmu.stage2_tlb.walker.walkRequestOrigin::total            0                       # Table walker requests started/completed, data/inst
system.cpu.istage2_mmu.stage2_tlb.inst_hits            0                       # ITB inst hits
system.cpu.istage2_mmu.stage2_tlb.inst_misses            0                       # ITB inst misses
system.cpu.istage2_mmu.stage2_tlb.read_hits            0                       # DTB read hits
system.cpu.istage2_mmu.stage2_tlb.read_misses            0                       # DTB read misses
system.cpu.istage2_mmu.stage2_tlb.write_hits            0                       # DTB write hits
system.cpu.istage2_mmu.stage2_tlb.write_misses            0                       # DTB write misses
system.cpu.istage2_mmu.stage2_tlb.flush_tlb            0                       # Number of times complete TLB was flushed
system.cpu.istage2_mmu.stage2_tlb.flush_tlb_mva            0                       # Number of times TLB was flushed by MVA
system.cpu.istage2_mmu.stage2_tlb.flush_tlb_mva_asid            0                       # Number of times TLB was flushed by MVA & ASID
system.cpu.istage2_mmu.stage2_tlb.flush_tlb_asid            0                       # Number of times TLB was flushed by ASID
system.cpu.istage2_mmu.stage2_tlb.flush_entries            0                       # Number of entries that have been flushed from TLB
system.cpu.istage2_mmu.stage2_tlb.align_faults            0                       # Number of TLB faults due to alignment restrictions
system.cpu.istage2_mmu.stage2_tlb.prefetch_faults            0                       # Number of TLB faults due to prefetch
system.cpu.istage2_mmu.stage2_tlb.domain_faults            0                       # Number of TLB faults due to domain restrictions
system.cpu.istage2_mmu.stage2_tlb.perms_faults            0                       # Number of TLB faults due to permissions restrictions
system.cpu.istage2_mmu.stage2_tlb.read_accesses            0                       # DTB read accesses
system.cpu.istage2_mmu.stage2_tlb.write_accesses            0                       # DTB write accesses
system.cpu.istage2_mmu.stage2_tlb.inst_accesses            0                       # ITB inst accesses
system.cpu.istage2_mmu.stage2_tlb.hits              0                       # DTB hits
system.cpu.istage2_mmu.stage2_tlb.misses            0                       # DTB misses
system.cpu.istage2_mmu.stage2_tlb.accesses            0                       # DTB accesses
system.cpu.itb.walker.pwrStateResidencyTicks::UNDEFINED  80303238000                       # Cumulative time (in ticks) in various power states
system.cpu.itb.walker.walks                         0                       # Table walker walks requested
system.cpu.itb.walker.walkRequestOrigin_Requested::Data            0                       # Table walker requests started/completed, data/inst
system.cpu.itb.walker.walkRequestOrigin_Requested::Inst            0                       # Table walker requests started/completed, data/inst
system.cpu.itb.walker.walkRequestOrigin_Requested::total            0                       # Table walker requests started/completed, data/inst
system.cpu.itb.walker.walkRequestOrigin_Completed::Data            0                       # Table walker requests started/completed, data/inst
system.cpu.itb.walker.walkRequestOrigin_Completed::Inst            0                       # Table walker requests started/completed, data/inst
system.cpu.itb.walker.walkRequestOrigin_Completed::total            0                       # Table walker requests started/completed, data/inst
system.cpu.itb.walker.walkRequestOrigin::total            0                       # Table walker requests started/completed, data/inst
system.cpu.itb.inst_hits                            0                       # ITB inst hits
system.cpu.itb.inst_misses                          0                       # ITB inst misses
system.cpu.itb.read_hits                            0                       # DTB read hits
system.cpu.itb.read_misses                          0                       # DTB read misses
system.cpu.itb.write_hits                           0                       # DTB write hits
system.cpu.itb.write_misses                         0                       # DTB write misses
system.cpu.itb.flush_tlb                            0                       # Number of times complete TLB was flushed
system.cpu.itb.flush_tlb_mva                        0                       # Number of times TLB was flushed by MVA
system.cpu.itb.flush_tlb_mva_asid                   0                       # Number of times TLB was flushed by MVA & ASID
system.cpu.itb.flush_tlb_asid                       0                       # Number of times TLB was flushed by ASID
system.cpu.itb.flush_entries                        0                       # Number of entries that have been flushed from TLB
system.cpu.itb.align_faults                         0                       # Number of TLB faults due to alignment restrictions
system.cpu.itb.prefetch_faults                      0                       # Number of TLB faults due to prefetch
system.cpu.itb.domain_faults                        0                       # Number of TLB faults due to domain restrictions
system.cpu.itb.perms_faults                         0                       # Number of TLB faults due to permissions restrictions
system.cpu.itb.read_accesses                        0                       # DTB read accesses
system.cpu.itb.write_accesses                       0                       # DTB write accesses
system.cpu.itb.inst_accesses                        0                       # ITB inst accesses
system.cpu.itb.hits                                 0                       # DTB hits
system.cpu.itb.misses                               0                       # DTB misses
system.cpu.itb.accesses                             0                       # DTB accesses
system.cpu.workload.numSyscalls                     2                       # Number of system calls
system.cpu.pwrStateResidencyTicks::ON     80303238000                       # Cumulative time (in ticks) in various power states
system.cpu.numCycles                        160566107                       # number of cpu cycles simulated
system.cpu.numWorkItemsStarted                      0                       # number of work items this cpu started
system.cpu.numWorkItemsCompleted                    0                       # number of work items this cpu completed
system.cpu.fetch.icacheStallCycles            1001386                       # Number of cycles fetch is stalled on an Icache miss
system.cpu.fetch.Insts                      232673655                       # Number of instructions fetch has processed
system.cpu.fetch.Branches                    46006259                       # Number of branches that fetch encountered
system.cpu.fetch.predictedBranches           30452841                       # Number of branches that fetch has predicted taken
system.cpu.fetch.Cycles                     158466430                       # Number of cycles fetch has run and was not squashing or blocked
system.cpu.fetch.SquashCycles                 2183150                       # Number of cycles fetch has spent squashing
system.cpu.fetch.MiscStallCycles                  142                       # Number of cycles fetch has spent waiting on interrupts, or bad addresses, or out of MSHRs
system.cpu.fetch.IcacheWaitRetryStallCycles          122                       # Number of stall cycles due to full MSHR
system.cpu.fetch.CacheLines                  78829354                       # Number of cache lines fetched
system.cpu.fetch.IcacheSquashes                    37                       # Number of outstanding Icache misses that were squashed
system.cpu.fetch.rateDist::samples          160559655                       # Number of instructions fetched each cycle (Total)
system.cpu.fetch.rateDist::mean              1.449143                       # Number of instructions fetched each cycle (Total)
system.cpu.fetch.rateDist::stdev             1.087619                       # Number of instructions fetched each cycle (Total)
system.cpu.fetch.rateDist::underflows               0      0.00%      0.00% # Number of instructions fetched each cycle (Total)
system.cpu.fetch.rateDist::0                 32725331     20.38%     20.38% # Number of instructions fetched each cycle (Total)
system.cpu.fetch.rateDist::1                 65371299     40.71%     61.10% # Number of instructions fetched each cycle (Total)
system.cpu.fetch.rateDist::2                 20086485     12.51%     73.61% # Number of instructions fetched each cycle (Total)
system.cpu.fetch.rateDist::3                 42376540     26.39%    100.00% # Number of instructions fetched each cycle (Total)
system.cpu.fetch.rateDist::overflows                0      0.00%    100.00% # Number of instructions fetched each cycle (Total)
system.cpu.fetch.rateDist::min_value                0                       # Number of instructions fetched each cycle (Total)
system.cpu.fetch.rateDist::max_value                3                       # Number of instructions fetched each cycle (Total)
system.cpu.fetch.rateDist::total            160559655                       # Number of instructions fetched each cycle (Total)
system.cpu.fetch.branchRate                  0.286525                       # Number of branch fetches per cycle
system.cpu.fetch.rate                        1.449083                       # Number of inst fetches per cycle
system.cpu.decode.IdleCycles                 23274820                       # Number of cycles decode is idle
system.cpu.decode.BlockedCycles              62819371                       # Number of cycles decode is blocked
system.cpu.decode.RunCycles                  44374853                       # Number of cycles decode is running
system.cpu.decode.UnblockCycles              28999062                       # Number of cycles decode is unblocking
system.cpu.decode.SquashCycles                1091549                       # Number of cycles decode is squashing
system.cpu.decode.BranchResolved             25274405                       # Number of times decode resolved a branch
system.cpu.decode.BranchMispred                    26                       # Number of times decode detected a branch misprediction
system.cpu.decode.DecodedInsts              197383782                       # Number of instructions handled by decode
system.cpu.decode.SquashedInsts               2728290                       # Number of squashed instructions handled by decode
system.cpu.rename.SquashCycles                1091549                       # Number of cycles rename is squashing
system.cpu.rename.IdleCycles                 40184423                       # Number of cycles rename is idle
system.cpu.rename.BlockCycles                16912760                       # Number of cycles rename is blocking
system.cpu.rename.serializeStallCycles            216                       # count of cycles rename stalled for serializing inst
system.cpu.rename.RunCycles                  55464060                       # Number of cycles rename is running
system.cpu.rename.UnblockCycles              46906647                       # Number of cycles rename is unblocking
system.cpu.rename.RenamedInsts              192472992                       # Number of instructions processed by rename
system.cpu.rename.SquashedInsts                   363                       # Number of squashed instructions processed by rename
system.cpu.rename.ROBFullEvents              38089370                       # Number of times rename has blocked due to ROB full
system.cpu.rename.RenamedOperands           215473714                       # Number of destination operands rename has renamed
system.cpu.rename.RenameLookups             306300705                       # Number of register rename lookups that rename has made
system.cpu.rename.int_rename_lookups        230204001                       # Number of integer rename lookups
system.cpu.rename.CommittedMaps             170000574                       # Number of HB maps that are committed
system.cpu.rename.UndoneMaps                 45473150                       # Number of HB maps that are undone due to squashing
system.cpu.rename.serializingInsts                  9                       # count of serializing insts renamed
system.cpu.rename.tempSerializingInsts              5                       # count of temporary serializing insts renamed
system.cpu.rename.skidInsts                  61815812                       # count of insts added to the skid buffer
system.cpu.memDep0.insertedLoads             64096668                       # Number of loads inserted to the mem dependence unit.
system.cpu.memDep0.insertedStores            14456730                       # Number of stores inserted to the mem dependence unit.
system.cpu.memDep0.conflictingLoads          13547341                       # Number of conflicting loads.
system.cpu.memDep0.conflictingStores                1                       # Number of conflicting stores.
system.cpu.iq.iqInstsAdded                  191381268                       # Number of instructions added to the IQ (excludes non-spec)
system.cpu.iq.iqNonSpecInstsAdded                   4                       # Number of non-speculative instructions added to the IQ
system.cpu.iq.iqInstsIssued                 179649287                       # Number of instructions issued
system.cpu.iq.iqSquashedInstsIssued           1091448                       # Number of squashed instructions issued
system.cpu.iq.iqSquashedInstsExamined        40380606                       # Number of squashed instructions iterated over during squash; mainly for profiling
system.cpu.iq.iqSquashedOperandsExamined     27738210                       # Number of squashed operands that are examined and possibly removed from graph
system.cpu.iq.issued_per_cycle::samples     160559655                       # Number of insts issued each cycle
system.cpu.iq.issued_per_cycle::mean         1.118894                       # Number of insts issued each cycle
system.cpu.iq.issued_per_cycle::stdev        0.850370                       # Number of insts issued each cycle
system.cpu.iq.issued_per_cycle::underflows            0      0.00%      0.00% # Number of insts issued each cycle
system.cpu.iq.issued_per_cycle::0            38551385     24.01%     24.01% # Number of insts issued each cycle
system.cpu.iq.issued_per_cycle::1            75458584     47.00%     71.01% # Number of insts issued each cycle
system.cpu.iq.issued_per_cycle::2            35458370     22.08%     93.09% # Number of insts issued each cycle
system.cpu.iq.issued_per_cycle::3            11091301      6.91%    100.00% # Number of insts issued each cycle
system.cpu.iq.issued_per_cycle::4                  15      0.00%    100.00% # Number of insts issued each cycle
system.cpu.iq.issued_per_cycle::5                   0      0.00%    100.00% # Number of insts issued each cycle
system.cpu.iq.issued_per_cycle::6                   0      0.00%    100.00% # Number of insts issued each cycle
system.cpu.iq.issued_per_cycle::7                   0      0.00%    100.00% # Number of insts issued each cycle
system.cpu.iq.issued_per_cycle::8                   0      0.00%    100.00% # Number of insts issued each cycle
system.cpu.iq.issued_per_cycle::overflows            0      0.00%    100.00% # Number of insts issued each cycle
system.cpu.iq.issued_per_cycle::min_value            0                       # Number of insts issued each cycle
system.cpu.iq.issued_per_cycle::max_value            4                       # Number of insts issued each cycle
system.cpu.iq.issued_per_cycle::total       160559655                       # Number of insts issued each cycle
system.cpu.iq.fu_full::No_OpClass                   0      0.00%      0.00% # attempts to use FU when none available
system.cpu.iq.fu_full::IntAlu                 3908481      2.83%      2.83% # attempts to use FU when none available
system.cpu.iq.fu_full::IntMult                      0      0.00%      2.83% # attempts to use FU when none available
system.cpu.iq.fu_full::IntDiv               128632217     93.03%     95.86% # attempts to use FU when none available
system.cpu.iq.fu_full::FloatAdd                     0      0.00%     95.86% # attempts to use FU when none available
system.cpu.iq.fu_full::FloatCmp                     0      0.00%     95.86% # attempts to use FU when none available
system.cpu.iq.fu_full::FloatCvt                     0      0.00%     95.86% # attempts to use FU when none available
system.cpu.iq.fu_full::FloatMult                    0      0.00%     95.86% # attempts to use FU when none available
system.cpu.iq.fu_full::FloatMultAcc                 0      0.00%     95.86% # attempts to use FU when none available
system.cpu.iq.fu_full::FloatDiv                     0      0.00%     95.86% # attempts to use FU when none available
system.cpu.iq.fu_full::FloatMisc                    0      0.00%     95.86% # attempts to use FU when none available
system.cpu.iq.fu_full::FloatSqrt                    0      0.00%     95.86% # attempts to use FU when none available
system.cpu.iq.fu_full::SimdAdd                      0      0.00%     95.86% # attempts to use FU when none available
system.cpu.iq.fu_full::SimdAddAcc                   0      0.00%     95.86% # attempts to use FU when none available
system.cpu.iq.fu_full::SimdAlu                      0      0.00%     95.86% # attempts to use FU when none available
system.cpu.iq.fu_full::SimdCmp                      0      0.00%     95.86% # attempts to use FU when none available
system.cpu.iq.fu_full::SimdCvt                      0      0.00%     95.86% # attempts to use FU when none available
system.cpu.iq.fu_full::SimdMisc                     0      0.00%     95.86% # attempts to use FU when none available
system.cpu.iq.fu_full::SimdMult                     0      0.00%     95.86% # attempts to use FU when none available
system.cpu.iq.fu_full::SimdMultAcc                  0      0.00%     95.86% # attempts to use FU when none available
system.cpu.iq.fu_full::SimdShift                    0      0.00%     95.86% # attempts to use FU when none available
system.cpu.iq.fu_full::SimdShiftAcc                 0      0.00%     95.86% # attempts to use FU when none available
system.cpu.iq.fu_full::SimdSqrt                     0      0.00%     95.86% # attempts to use FU when none available
system.cpu.iq.fu_full::SimdFloatAdd                 0      0.00%     95.86% # attempts to use FU when none available
system.cpu.iq.fu_full::SimdFloatAlu                 0      0.00%     95.86% # attempts to use FU when none available
system.cpu.iq.fu_full::SimdFloatCmp                 0      0.00%     95.86% # attempts to use FU when none available
system.cpu.iq.fu_full::SimdFloatCvt                 0      0.00%     95.86% # attempts to use FU when none available
system.cpu.iq.fu_full::SimdFloatDiv                 0      0.00%     95.86% # attempts to use FU when none available
system.cpu.iq.fu_full::SimdFloatMisc                0      0.00%     95.86% # attempts to use FU when none available
system.cpu.iq.fu_full::SimdFloatMult                0      0.00%     95.86% # attempts to use FU when none available
system.cpu.iq.fu_full::SimdFloatMultAcc             0      0.00%     95.86% # attempts to use FU when none available
system.cpu.iq.fu_full::SimdFloatSqrt                0      0.00%     95.86% # attempts to use FU when none available
system.cpu.iq.fu_full::MemRead                5730107      4.14%    100.00% # attempts to use FU when none available
system.cpu.iq.fu_full::MemWrite                   278      0.00%    100.00% # attempts to use FU when none available
system.cpu.iq.fu_full::FloatMemRead                 0      0.00%    100.00% # attempts to use FU when none available
system.cpu.iq.fu_full::FloatMemWrite                0      0.00%    100.00% # attempts to use FU when none available
system.cpu.iq.fu_full::IprAccess                    0      0.00%    100.00% # attempts to use FU when none available
system.cpu.iq.fu_full::InstPrefetch                 0      0.00%    100.00% # attempts to use FU when none available
system.cpu.iq.FU_type_0::No_OpClass                 0      0.00%      0.00% # Type of FU issued
system.cpu.iq.FU_type_0::IntAlu              80913892     45.04%     45.04% # Type of FU issued
system.cpu.iq.FU_type_0::IntMult             10000000      5.57%     50.61% # Type of FU issued
system.cpu.iq.FU_type_0::IntDiv              11091319      6.17%     56.78% # Type of FU issued
system.cpu.iq.FU_type_0::FloatAdd                   0      0.00%     56.78% # Type of FU issued
system.cpu.iq.FU_type_0::FloatCmp                   0      0.00%     56.78% # Type of FU issued
system.cpu.iq.FU_type_0::FloatCvt                   0      0.00%     56.78% # Type of FU issued
system.cpu.iq.FU_type_0::FloatMult                  0      0.00%     56.78% # Type of FU issued
system.cpu.iq.FU_type_0::FloatMultAcc               0      0.00%     56.78% # Type of FU issued
system.cpu.iq.FU_type_0::FloatDiv                   0      0.00%     56.78% # Type of FU issued
system.cpu.iq.FU_type_0::FloatMisc                  0      0.00%     56.78% # Type of FU issued
system.cpu.iq.FU_type_0::FloatSqrt                  0      0.00%     56.78% # Type of FU issued
system.cpu.iq.FU_type_0::SimdAdd                    0      0.00%     56.78% # Type of FU issued
system.cpu.iq.FU_type_0::SimdAddAcc                 0      0.00%     56.78% # Type of FU issued
system.cpu.iq.FU_type_0::SimdAlu                    0      0.00%     56.78% # Type of FU issued
system.cpu.iq.FU_type_0::SimdCmp                    0      0.00%     56.78% # Type of FU issued
system.cpu.iq.FU_type_0::SimdCvt                    0      0.00%     56.78% # Type of FU issued
system.cpu.iq.FU_type_0::SimdMisc                   0      0.00%     56.78% # Type of FU issued
system.cpu.iq.FU_type_0::SimdMult                   0      0.00%     56.78% # Type of FU issued
system.cpu.iq.FU_type_0::SimdMultAcc                0      0.00%     56.78% # Type of FU issued
system.cpu.iq.FU_type_0::SimdShift                  0      0.00%     56.78% # Type of FU issued
system.cpu.iq.FU_type_0::SimdShiftAcc               0      0.00%     56.78% # Type of FU issued
system.cpu.iq.FU_type_0::SimdSqrt                   0      0.00%     56.78% # Type of FU issued
system.cpu.iq.FU_type_0::SimdFloatAdd               0      0.00%     56.78% # Type of FU issued
system.cpu.iq.FU_type_0::SimdFloatAlu               0      0.00%     56.78% # Type of FU issued
system.cpu.iq.FU_type_0::SimdFloatCmp               0      0.00%     56.78% # Type of FU issued
system.cpu.iq.FU_type_0::SimdFloatCvt               0      0.00%     56.78% # Type of FU issued
system.cpu.iq.FU_type_0::SimdFloatDiv               0      0.00%     56.78% # Type of FU issued
system.cpu.iq.FU_type_0::SimdFloatMisc              0      0.00%     56.78% # Type of FU issued
system.cpu.iq.FU_type_0::SimdFloatMult              0      0.00%     56.78% # Type of FU issued
system.cpu.iq.FU_type_0::SimdFloatMultAcc            0      0.00%     56.78% # Type of FU issued
system.cpu.iq.FU_type_0::SimdFloatSqrt              0      0.00%     56.78% # Type of FU issued
system.cpu.iq.FU_type_0::MemRead             63187477     35.17%     91.95% # Type of FU issued
system.cpu.iq.FU_type_0::MemWrite            14456599      8.05%    100.00% # Type of FU issued
system.cpu.iq.FU_type_0::FloatMemRead               0      0.00%    100.00% # Type of FU issued
system.cpu.iq.FU_type_0::FloatMemWrite              0      0.00%    100.00% # Type of FU issued
system.cpu.iq.FU_type_0::IprAccess                  0      0.00%    100.00% # Type of FU issued
system.cpu.iq.FU_type_0::InstPrefetch               0      0.00%    100.00% # Type of FU issued
system.cpu.iq.FU_type_0::total              179649287                       # Type of FU issued
system.cpu.iq.rate                           1.118849                       # Inst issue rate
system.cpu.iq.fu_busy_cnt                   138271083                       # FU busy when requested
system.cpu.iq.fu_busy_rate                   0.769672                       # FU busy rate (busy events/executed inst)
system.cpu.iq.int_inst_queue_reads          659220762                       # Number of integer instruction queue reads
system.cpu.iq.int_inst_queue_writes         231762054                       # Number of integer instruction queue writes
system.cpu.iq.int_inst_queue_wakeup_accesses    176466119                       # Number of integer instruction queue wakeup accesses
system.cpu.iq.fp_inst_queue_reads                   0                       # Number of floating instruction queue reads
system.cpu.iq.fp_inst_queue_writes                  0                       # Number of floating instruction queue writes
system.cpu.iq.fp_inst_queue_wakeup_accesses            0                       # Number of floating instruction queue wakeup accesses
system.cpu.iq.int_alu_accesses              317920370                       # Number of integer alu accesses
system.cpu.iq.fp_alu_accesses                       0                       # Number of floating point alu accesses
system.cpu.iew.lsq.thread0.forwLoads         36547921                       # Number of loads that had data forwarded from stores
system.cpu.iew.lsq.thread0.invAddrLoads             0                       # Number of loads ignored due to an invalid address
system.cpu.iew.lsq.thread0.squashedLoads     14096543                       # Number of loads squashed
system.cpu.iew.lsq.thread0.ignoredResponses           39                       # Number of memory responses ignored because the instruction is squashed
system.cpu.iew.lsq.thread0.memOrderViolation          176                       # Number of memory ordering violations
system.cpu.iew.lsq.thread0.squashedStores      3456608                       # Number of stores squashed
system.cpu.iew.lsq.thread0.invAddrSwpfs             0                       # Number of software prefetches ignored due to an invalid address
system.cpu.iew.lsq.thread0.blockedLoads             0                       # Number of blocked loads due to partial load-store forwarding
system.cpu.iew.lsq.thread0.rescheduledLoads            0                       # Number of loads that were rescheduled
system.cpu.iew.lsq.thread0.cacheBlocked             0                       # Number of times an access to memory failed due to the cache being blocked
system.cpu.iew.iewIdleCycles                        0                       # Number of cycles IEW is idle
system.cpu.iew.iewSquashCycles                1091549                       # Number of cycles IEW is squashing
system.cpu.iew.iewBlockCycles                 4365349                       # Number of cycles IEW is blocking
system.cpu.iew.iewUnblockCycles                     0                       # Number of cycles IEW is unblocking
system.cpu.iew.iewDispatchedInsts           191381277                       # Number of instructions dispatched to IQ
system.cpu.iew.iewDispSquashedInsts                 0                       # Number of squashed instructions skipped by dispatch
system.cpu.iew.iewDispLoadInsts              64096668                       # Number of dispatched load instructions
system.cpu.iew.iewDispStoreInsts             14456730                       # Number of dispatched store instructions
system.cpu.iew.iewDispNonSpecInsts                  4                       # Number of dispatched non-speculative instructions
system.cpu.iew.iewIQFullEvents                      0                       # Number of times the IQ has become full, causing a stall
system.cpu.iew.iewLSQFullEvents                     0                       # Number of times the LSQ has become full, causing a stall
system.cpu.iew.memOrderViolationEvents            176                       # Number of memory order violations
system.cpu.iew.predictedTakenIncorrect        1000005                       # Number of branches that were predicted taken incorrectly
system.cpu.iew.predictedNotTakenIncorrect        91369                       # Number of branches that were predicted not taken incorrectly
system.cpu.iew.branchMispredicts              1091374                       # Number of branch mispredicts detected at execute
system.cpu.iew.iewExecutedInsts             176557471                       # Number of executed instructions
system.cpu.iew.iewExecLoadInsts              62096096                       # Number of load instructions executed
system.cpu.iew.iewExecSquashedInsts           3091818                       # Number of squashed instructions skipped in execute
system.cpu.iew.exec_swp                             0                       # number of swp insts executed
system.cpu.iew.exec_nop                             5                       # number of nop insts executed
system.cpu.iew.exec_refs                     75643694                       # number of memory reference insts executed
system.cpu.iew.exec_branches                 35456790                       # Number of branches executed
system.cpu.iew.exec_stores                   13547598                       # Number of stores executed
system.cpu.iew.exec_rate                     1.099594                       # Inst execution rate
system.cpu.iew.wb_sent                      176466147                       # cumulative count of insts sent to commit
system.cpu.iew.wb_count                     176466119                       # cumulative count of insts written-back
system.cpu.iew.wb_producers                 123552899                       # num instructions producing a value
system.cpu.iew.wb_consumers                 192283746                       # num instructions consuming a value
system.cpu.iew.wb_rate                       1.099025                       # insts written-back per cycle
system.cpu.iew.wb_fanout                     0.642555                       # average fanout of values written-back
system.cpu.commit.commitSquashedInsts        39288686                       # The number of squashed insts skipped by commit
system.cpu.commit.commitNonSpecStalls               4                       # The number of times commit has been forced to stall to communicate backwards
system.cpu.commit.branchMispredicts           1091372                       # The number of times a branch was mispredicted
system.cpu.commit.committed_per_cycle::samples    155102757                       # Number of insts commited each cycle
system.cpu.commit.committed_per_cycle::mean     0.973552                       # Number of insts commited each cycle
system.cpu.commit.committed_per_cycle::stdev     1.916064                       # Number of insts commited each cycle
system.cpu.commit.committed_per_cycle::underflows            0      0.00%      0.00% # Number of insts commited each cycle
system.cpu.commit.committed_per_cycle::0     89737107     57.86%     57.86% # Number of insts commited each cycle
system.cpu.commit.committed_per_cycle::1     43182844     27.84%     85.70% # Number of insts commited each cycle
system.cpu.commit.committed_per_cycle::2      3274064      2.11%     87.81% # Number of insts commited each cycle
system.cpu.commit.committed_per_cycle::3     10000018      6.45%     94.26% # Number of insts commited each cycle
system.cpu.commit.committed_per_cycle::4           23      0.00%     94.26% # Number of insts commited each cycle
system.cpu.commit.committed_per_cycle::5            8      0.00%     94.26% # Number of insts commited each cycle
system.cpu.commit.committed_per_cycle::6           13      0.00%     94.26% # Number of insts commited each cycle
system.cpu.commit.committed_per_cycle::7            3      0.00%     94.26% # Number of insts commited each cycle
system.cpu.commit.committed_per_cycle::8      8908677      5.74%    100.00% # Number of insts commited each cycle
system.cpu.commit.committed_per_cycle::overflows            0      0.00%    100.00% # Number of insts commited each cycle
system.cpu.commit.committed_per_cycle::min_value            0                       # Number of insts commited each cycle
system.cpu.commit.committed_per_cycle::max_value            8                       # Number of insts commited each cycle
system.cpu.commit.committed_per_cycle::total    155102757                       # Number of insts commited each cycle
system.cpu.commit.committedInsts            151000535                       # Number of instructions committed
system.cpu.commit.committedOps              151000673                       # Number of ops (including micro ops) committed
system.cpu.commit.swp_count                         0                       # Number of s/w prefetches committed
system.cpu.commit.refs                       61000251                       # Number of memory references committed
system.cpu.commit.loads                      50000128                       # Number of loads committed
system.cpu.commit.membars                           2                       # Number of memory barriers committed
system.cpu.commit.branches                   30000139                       # Number of branches committed
system.cpu.commit.vec_insts                         0                       # Number of committed Vector instructions.
system.cpu.commit.fp_insts                          0                       # Number of committed floating point instructions.
system.cpu.commit.int_insts                 121000625                       # Number of committed integer instructions.
system.cpu.commit.function_calls                   17                       # Number of function calls committed.
system.cpu.commit.op_class_0::No_OpClass            0      0.00%      0.00% # Class of committed instruction
system.cpu.commit.op_class_0::IntAlu         70000422     46.36%     46.36% # Class of committed instruction
system.cpu.commit.op_class_0::IntMult        10000000      6.62%     52.98% # Class of committed instruction
system.cpu.commit.op_class_0::IntDiv         10000000      6.62%     59.60% # Class of committed instruction
system.cpu.commit.op_class_0::FloatAdd              0      0.00%     59.60% # Class of committed instruction
system.cpu.commit.op_class_0::FloatCmp              0      0.00%     59.60% # Class of committed instruction
system.cpu.commit.op_class_0::FloatCvt              0      0.00%     59.60% # Class of committed instruction
system.cpu.commit.op_class_0::FloatMult             0      0.00%     59.60% # Class of committed instruction
system.cpu.commit.op_class_0::FloatMultAcc            0      0.00%     59.60% # Class of committed instruction
system.cpu.commit.op_class_0::FloatDiv              0      0.00%     59.60% # Class of committed instruction
system.cpu.commit.op_class_0::FloatMisc             0      0.00%     59.60% # Class of committed instruction
system.cpu.commit.op_class_0::FloatSqrt             0      0.00%     59.60% # Class of committed instruction
system.cpu.commit.op_class_0::SimdAdd               0      0.00%     59.60% # Class of committed instruction
system.cpu.commit.op_class_0::SimdAddAcc            0      0.00%     59.60% # Class of committed instruction
system.cpu.commit.op_class_0::SimdAlu               0      0.00%     59.60% # Class of committed instruction
system.cpu.commit.op_class_0::SimdCmp               0      0.00%     59.60% # Class of committed instruction
system.cpu.commit.op_class_0::SimdCvt               0      0.00%     59.60% # Class of committed instruction
system.cpu.commit.op_class_0::SimdMisc              0      0.00%     59.60% # Class of committed instruction
system.cpu.commit.op_class_0::SimdMult              0      0.00%     59.60% # Class of committed instruction
system.cpu.commit.op_class_0::SimdMultAcc            0      0.00%     59.60% # Class of committed instruction
system.cpu.commit.op_class_0::SimdShift             0      0.00%     59.60% # Class of committed instruction
system.cpu.commit.op_class_0::SimdShiftAcc            0      0.00%     59.60% # Class of committed instruction
system.cpu.commit.op_class_0::SimdSqrt              0      0.00%     59.60% # Class of committed instruction
system.cpu.commit.op_class_0::SimdFloatAdd            0      0.00%     59.60% # Class of committed instruction
system.cpu.commit.op_class_0::SimdFloatAlu            0      0.00%     59.60% # Class of committed instruction
system.cpu.commit.op_class_0::SimdFloatCmp            0      0.00%     59.60% # Class of committed instruction
system.cpu.commit.op_class_0::SimdFloatCvt            0      0.00%     59.60% # Class of committed instruction
system.cpu.commit.op_class_0::SimdFloatDiv            0      0.00%     59.60% # Class of committed instruction
system.cpu.commit.op_class_0::SimdFloatMisc            0      0.00%     59.60% # Class of committed instruction
system.cpu.commit.op_class_0::SimdFloatMult            0      0.00%     59.60% # Class of committed instruction
system.cpu.commit.op_class_0::SimdFloatMultAcc            0      0.00%     59.60% # Class of committed instruction
system.cpu.commit.op_class_0::SimdFloatSqrt            0      0.00%     59.60% # Class of committed instruction
system.cpu.commit.op_class_0::MemRead        50000128     33.11%     92.72% # Class of committed instruction
system.cpu.commit.op_class_0::MemWrite       11000123      7.28%    100.00% # Class of committed instruction
system.cpu.commit.op_class_0::FloatMemRead            0      0.00%    100.00% # Class of committed instruction
system.cpu.commit.op_class_0::FloatMemWrite            0      0.00%    100.00% # Class of committed instruction
system.cpu.commit.op_class_0::IprAccess             0      0.00%    100.00% # Class of committed instruction
system.cpu.commit.op_class_0::InstPrefetch            0      0.00%    100.00% # Class of committed instruction
system.cpu.commit.op_class_0::total         151000673                       # Class of committed instruction
[...]
system.l2.demand_miss_latency::total          6821000                       # number of demand (read+write) miss cycles
system.l2.overall_miss_latency::cpu.inst      5622000                       # number of overall miss cycles
system.l2.overall_miss_latency::cpu.data      1199000                       # number of overall miss cycles
system.l2.overall_miss_latency::total         6821000                       # number of overall miss cycles
system.l2.WritebackClean_accesses::writebacks           26                       # number of WritebackClean accesses(hits+misses)
system.l2.WritebackClean_accesses::total           26                       # number of WritebackClean accesses(hits+misses)
system.l2.ReadExReq_accesses::cpu.data              1                       # number of ReadExReq accesses(hits+misses)
system.l2.ReadExReq_accesses::total                 1                       # number of ReadExReq accesses(hits+misses)
system.l2.ReadCleanReq_accesses::cpu.inst           61                       # number of ReadCleanReq accesses(hits+misses)
system.l2.ReadCleanReq_accesses::total             61                       # number of ReadCleanReq accesses(hits+misses)
system.l2.ReadSharedReq_accesses::cpu.data           14                       # number of ReadSharedReq accesses(hits+misses)
system.l2.ReadSharedReq_accesses::total            14                       # number of ReadSharedReq accesses(hits+misses)
system.l2.demand_accesses::cpu.inst                61                       # number of demand (read+write) accesses
system.l2.demand_accesses::cpu.data                15                       # number of demand (read+write) accesses
system.l2.demand_accesses::total                   76                       # number of demand (read+write) accesses
system.l2.overall_accesses::cpu.inst               61                       # number of overall (read+write) accesses
system.l2.overall_accesses::cpu.data               15                       # number of overall (read+write) accesses
system.l2.overall_accesses::total                  76                       # number of overall (read+write) accesses
system.l2.ReadExReq_miss_rate::cpu.data             1                       # miss rate for ReadExReq accesses
system.l2.ReadExReq_miss_rate::total                1                       # miss rate for ReadExReq accesses
system.l2.ReadCleanReq_miss_rate::cpu.inst            1                       # miss rate for ReadCleanReq accesses
system.l2.ReadCleanReq_miss_rate::total             1                       # miss rate for ReadCleanReq accesses
system.l2.ReadSharedReq_miss_rate::cpu.data            1                       # miss rate for ReadSharedReq accesses
system.l2.ReadSharedReq_miss_rate::total            1                       # miss rate for ReadSharedReq accesses
system.l2.demand_miss_rate::cpu.inst                1                       # miss rate for demand accesses
system.l2.demand_miss_rate::cpu.data                1                       # miss rate for demand accesses
system.l2.demand_miss_rate::total                   1                       # miss rate for demand accesses
system.l2.overall_miss_rate::cpu.inst               1                       # miss rate for overall accesses
system.l2.overall_miss_rate::cpu.data               1                       # miss rate for overall accesses
system.l2.overall_miss_rate::total                  1                       # miss rate for overall accesses
system.l2.ReadExReq_avg_miss_latency::cpu.data        89500                       # average ReadExReq miss latency
system.l2.ReadExReq_avg_miss_latency::total        89500                       # average ReadExReq miss latency
system.l2.ReadCleanReq_avg_miss_latency::cpu.inst 92163.934426                       # average ReadCleanReq miss latency
system.l2.ReadCleanReq_avg_miss_latency::total 92163.934426                       # average ReadCleanReq miss latency
system.l2.ReadSharedReq_avg_miss_latency::cpu.data        79250                       # average ReadSharedReq miss latency
system.l2.ReadSharedReq_avg_miss_latency::total        79250                       # average ReadSharedReq miss latency
system.l2.demand_avg_miss_latency::cpu.inst 92163.934426                       # average overall miss latency
system.l2.demand_avg_miss_latency::cpu.data 79933.333333                       # average overall miss latency
system.l2.demand_avg_miss_latency::total        89750                       # average overall miss latency
system.l2.overall_avg_miss_latency::cpu.inst 92163.934426                       # average overall miss latency
system.l2.overall_avg_miss_latency::cpu.data 79933.333333                       # average overall miss latency
system.l2.overall_avg_miss_latency::total        89750                       # average overall miss latency
system.l2.blocked_cycles::no_mshrs                  0                       # number of cycles access was blocked
system.l2.blocked_cycles::no_targets                0                       # number of cycles access was blocked
system.l2.blocked::no_mshrs                         0                       # number of cycles access was blocked
system.l2.blocked::no_targets                       0                       # number of cycles access was blocked
system.l2.avg_blocked_cycles::no_mshrs            nan                       # average number of cycles each access was blocked
system.l2.avg_blocked_cycles::no_targets          nan                       # average number of cycles each access was blocked
system.l2.ReadExReq_mshr_misses::cpu.data            1                       # number of ReadExReq MSHR misses
system.l2.ReadExReq_mshr_misses::total              1                       # number of ReadExReq MSHR misses
system.l2.ReadCleanReq_mshr_misses::cpu.inst           61                       # number of ReadCleanReq MSHR misses
system.l2.ReadCleanReq_mshr_misses::total           61                       # number of ReadCleanReq MSHR misses
system.l2.ReadSharedReq_mshr_misses::cpu.data           14                       # number of ReadSharedReq MSHR misses
system.l2.ReadSharedReq_mshr_misses::total           14                       # number of ReadSharedReq MSHR misses
system.l2.demand_mshr_misses::cpu.inst             61                       # number of demand (read+write) MSHR misses
system.l2.demand_mshr_misses::cpu.data             15                       # number of demand (read+write) MSHR misses
system.l2.demand_mshr_misses::total                76                       # number of demand (read+write) MSHR misses
system.l2.overall_mshr_misses::cpu.inst            61                       # number of overall MSHR misses
system.l2.overall_mshr_misses::cpu.data            15                       # number of overall MSHR misses
system.l2.overall_mshr_misses::total               76                       # number of overall MSHR misses
system.l2.ReadExReq_mshr_miss_latency::cpu.data        83500                       # number of ReadExReq MSHR miss cycles
system.l2.ReadExReq_mshr_miss_latency::total        83500                       # number of ReadExReq MSHR miss cycles
system.l2.ReadCleanReq_mshr_miss_latency::cpu.inst      5256000                       # number of ReadCleanReq MSHR miss cycles
system.l2.ReadCleanReq_mshr_miss_latency::total      5256000                       # number of ReadCleanReq MSHR miss cycles
system.l2.ReadSharedReq_mshr_miss_latency::cpu.data      1025500                       # number of ReadSharedReq MSHR miss cycles
system.l2.ReadSharedReq_mshr_miss_latency::total      1025500                       # number of ReadSharedReq MSHR miss cycles
system.l2.demand_mshr_miss_latency::cpu.inst      5256000                       # number of demand (read+write) MSHR miss cycles
system.l2.demand_mshr_miss_latency::cpu.data      1109000                       # number of demand (read+write) MSHR miss cycles
system.l2.demand_mshr_miss_latency::total      6365000                       # number of demand (read+write) MSHR miss cycles
system.l2.overall_mshr_miss_latency::cpu.inst      5256000                       # number of overall MSHR miss cycles
system.l2.overall_mshr_miss_latency::cpu.data      1109000                       # number of overall MSHR miss cycles
system.l2.overall_mshr_miss_latency::total      6365000                       # number of overall MSHR miss cycles
system.l2.ReadExReq_mshr_miss_rate::cpu.data            1                       # mshr miss rate for ReadExReq accesses
system.l2.ReadExReq_mshr_miss_rate::total            1                       # mshr miss rate for ReadExReq accesses
system.l2.ReadCleanReq_mshr_miss_rate::cpu.inst            1                       # mshr miss rate for ReadCleanReq accesses
system.l2.ReadCleanReq_mshr_miss_rate::total            1                       # mshr miss rate for ReadCleanReq accesses
system.l2.ReadSharedReq_mshr_miss_rate::cpu.data            1                       # mshr miss rate for ReadSharedReq accesses
system.l2.ReadSharedReq_mshr_miss_rate::total            1                       # mshr miss rate for ReadSharedReq accesses
system.l2.demand_mshr_miss_rate::cpu.inst            1                       # mshr miss rate for demand accesses
system.l2.demand_mshr_miss_rate::cpu.data            1                       # mshr miss rate for demand accesses
system.l2.demand_mshr_miss_rate::total              1                       # mshr miss rate for demand accesses
system.l2.overall_mshr_miss_rate::cpu.inst            1                       # mshr miss rate for overall accesses
system.l2.overall_mshr_miss_rate::cpu.data            1                       # mshr miss rate for overall accesses
system.l2.overall_mshr_miss_rate::total             1                       # mshr miss rate for overall accesses
system.l2.ReadExReq_avg_mshr_miss_latency::cpu.data        83500                       # average ReadExReq mshr miss latency
system.l2.ReadExReq_avg_mshr_miss_latency::total        83500                       # average ReadExReq mshr miss latency
system.l2.ReadCleanReq_avg_mshr_miss_latency::cpu.inst 86163.934426                       # average ReadCleanReq mshr miss latency
system.l2.ReadCleanReq_avg_mshr_miss_latency::total 86163.934426                       # average ReadCleanReq mshr miss latency
system.l2.ReadSharedReq_avg_mshr_miss_latency::cpu.data        73250                       # average ReadSharedReq mshr miss latency
system.l2.ReadSharedReq_avg_mshr_miss_latency::total        73250                       # average ReadSharedReq mshr miss latency
system.l2.demand_avg_mshr_miss_latency::cpu.inst 86163.934426                       # average overall mshr miss latency
system.l2.demand_avg_mshr_miss_latency::cpu.data 73933.333333                       # average overall mshr miss latency
system.l2.demand_avg_mshr_miss_latency::total        83750                       # average overall mshr miss latency
system.l2.overall_avg_mshr_miss_latency::cpu.inst 86163.934426                       # average overall mshr miss latency
system.l2.overall_avg_mshr_miss_latency::cpu.data 73933.333333                       # average overall mshr miss latency
system.l2.overall_avg_mshr_miss_latency::total        83750                       # average overall mshr miss latency
system.membus.snoop_filter.tot_requests            76                       # Total number of requests made to the snoop filter.
system.membus.snoop_filter.hit_single_requests            5                       # Number of requests hitting in the snoop filter with a single holder of the requested data.
system.membus.snoop_filter.hit_multi_requests            0                       # Number of requests hitting in the snoop filter with multiple (>1) holders of the requested data.
system.membus.snoop_filter.tot_snoops               0                       # Total number of snoops made to the snoop filter.
system.membus.snoop_filter.hit_single_snoops            0                       # Number of snoops hitting in the snoop filter with a single holder of the requested data.
system.membus.snoop_filter.hit_multi_snoops            0                       # Number of snoops hitting in the snoop filter with multiple (>1) holders of the requested data.
system.membus.pwrStateResidencyTicks::UNDEFINED  80303238000                       # Cumulative time (in ticks) in various power states
system.membus.trans_dist::ReadResp                 75                       # Transaction distribution
system.membus.trans_dist::ReadExReq                 1                       # Transaction distribution
system.membus.trans_dist::ReadExResp                1                       # Transaction distribution
system.membus.trans_dist::ReadSharedReq            75                       # Transaction distribution
system.membus.pkt_count_system.l2.mem_side::system.mem_ctrls.port          152                       # Packet count per connected master and slave (bytes)
system.membus.pkt_count::total                    152                       # Packet count per connected master and slave (bytes)
system.membus.pkt_size_system.l2.mem_side::system.mem_ctrls.port         4864                       # Cumulative packet size per connected master and slave (bytes)
system.membus.pkt_size::total                    4864                       # Cumulative packet size per connected master and slave (bytes)
system.membus.snoops                                0                       # Total snoops (count)
system.membus.snoopTraffic                          0                       # Total snoop traffic (bytes)
system.membus.snoop_fanout::samples                76                       # Request fanout histogram
system.membus.snoop_fanout::mean                    0                       # Request fanout histogram
system.membus.snoop_fanout::stdev                   0                       # Request fanout histogram
system.membus.snoop_fanout::underflows              0      0.00%      0.00% # Request fanout histogram
system.membus.snoop_fanout::0                      76    100.00%    100.00% # Request fanout histogram
system.membus.snoop_fanout::1                       0      0.00%    100.00% # Request fanout histogram
system.membus.snoop_fanout::overflows               0      0.00%    100.00% # Request fanout histogram
system.membus.snoop_fanout::min_value               0                       # Request fanout histogram
system.membus.snoop_fanout::max_value               0                       # Request fanout histogram
system.membus.snoop_fanout::total                  76                       # Request fanout histogram
system.membus.reqLayer0.occupancy               91000                       # Layer occupancy (ticks)
system.membus.reqLayer0.utilization               0.0                       # Layer utilization (%)
system.membus.respLayer1.occupancy             403750                       # Layer occupancy (ticks)
system.membus.respLayer1.utilization              0.0                       # Layer utilization (%)
system.tol2bus.snoop_filter.tot_requests          103                       # Total number of requests made to the snoop filter.
system.tol2bus.snoop_filter.hit_single_requests           31                       # Number of requests hitting in the snoop filter with a single holder of the requested data.
system.tol2bus.snoop_filter.hit_multi_requests            1                       # Number of requests hitting in the snoop filter with multiple (>1) holders of the requested data.
system.tol2bus.snoop_filter.tot_snoops              0                       # Total number of snoops made to the snoop filter.
system.tol2bus.snoop_filter.hit_single_snoops            0                       # Number of snoops hitting in the snoop filter with a single holder of the requested data.
system.tol2bus.snoop_filter.hit_multi_snoops            0                       # Number of snoops hitting in the snoop filter with multiple (>1) holders of the requested data.
system.tol2bus.pwrStateResidencyTicks::UNDEFINED  80303238000                       # Cumulative time (in ticks) in various power states
system.tol2bus.trans_dist::ReadResp                75                       # Transaction distribution
system.tol2bus.trans_dist::WritebackClean           27                       # Transaction distribution
system.tol2bus.trans_dist::ReadExReq                1                       # Transaction distribution
system.tol2bus.trans_dist::ReadExResp               1                       # Transaction distribution
system.tol2bus.trans_dist::ReadCleanReq            61                       # Transaction distribution
system.tol2bus.trans_dist::ReadSharedReq           14                       # Transaction distribution
system.tol2bus.pkt_count_system.cpu.icache.mem_side::system.l2.cpu_side          149                       # Packet count per connected master and slave (bytes)
system.tol2bus.pkt_count_system.cpu.dcache.mem_side::system.l2.cpu_side           30                       # Packet count per connected master and slave (bytes)
system.tol2bus.pkt_count::total                   179                       # Packet count per connected master and slave (bytes)
system.tol2bus.pkt_size_system.cpu.icache.mem_side::system.l2.cpu_side         5632                       # Cumulative packet size per connected master and slave (bytes)
system.tol2bus.pkt_size_system.cpu.dcache.mem_side::system.l2.cpu_side          960                       # Cumulative packet size per connected master and slave (bytes)
system.tol2bus.pkt_size::total                   6592                       # Cumulative packet size per connected master and slave (bytes)
system.tol2bus.snoops                               0                       # Total snoops (count)
system.tol2bus.snoopTraffic                         0                       # Total snoop traffic (bytes)
system.tol2bus.snoop_fanout::samples               76                       # Request fanout histogram
system.tol2bus.snoop_fanout::mean            0.065789                       # Request fanout histogram
system.tol2bus.snoop_fanout::stdev           0.249561                       # Request fanout histogram
system.tol2bus.snoop_fanout::underflows             0      0.00%      0.00% # Request fanout histogram
system.tol2bus.snoop_fanout::0                     71     93.42%     93.42% # Request fanout histogram
system.tol2bus.snoop_fanout::1                      5      6.58%    100.00% # Request fanout histogram
system.tol2bus.snoop_fanout::2                      0      0.00%    100.00% # Request fanout histogram
system.tol2bus.snoop_fanout::3                      0      0.00%    100.00% # Request fanout histogram
system.tol2bus.snoop_fanout::4                      0      0.00%    100.00% # Request fanout histogram
system.tol2bus.snoop_fanout::overflows              0      0.00%    100.00% # Request fanout histogram
system.tol2bus.snoop_fanout::min_value              0                       # Request fanout histogram
system.tol2bus.snoop_fanout::max_value              1                       # Request fanout histogram
system.tol2bus.snoop_fanout::total                 76                       # Request fanout histogram
system.tol2bus.reqLayer0.occupancy              78500                       # Layer occupancy (ticks)
system.tol2bus.reqLayer0.utilization              0.0                       # Layer utilization (%)
system.tol2bus.respLayer0.occupancy             91500                       # Layer occupancy (ticks)
system.tol2bus.respLayer0.utilization             0.0                       # Layer utilization (%)
system.tol2bus.respLayer1.occupancy             22500                       # Layer occupancy (ticks)
system.tol2bus.respLayer1.utilization             0.0                       # Layer utilization (%)

---------- End Simulation Statistics   ----------
