
---------- Begin Simulation Statistics ----------
sim_seconds                                  0.138408                       # Number of seconds simulated
sim_ticks                                138408146000                       # Number of ticks simulated
final_tick                               138408146000                       # Number of ticks from beginning of simulation (restored from checkpoints and never reset)
sim_freq                                 1000000000000                       # Frequency of simulated ticks
host_inst_rate                                 322811                       # Simulator instruction rate (inst/s)
host_op_rate                                   322820                       # Simulator op (including micro ops) rate (op/s)
host_tick_rate                              109612432                       # Simulator tick rate (ticks/s)
host_mem_usage                                 671228                       # Number of bytes of host memory used
host_seconds                                  1262.70                       # Real time elapsed on the host
sim_insts                                   407614921                       # Number of instructions simulated
sim_ops                                     407626381                       # Number of ops (including micro ops) simulated
system.voltage_domain.voltage                       1                       # Voltage in Volts
system.clk_domain.clock                          1000                       # Clock period in ticks
system.mem_ctrls.pwrStateResidencyTicks::UNDEFINED 138408146000                       # Cumulative time (in ticks) in various power states
system.mem_ctrls.bytes_read::cpu.inst           25472                       # Number of bytes read from this memory
system.mem_ctrls.bytes_read::cpu.data           11840                       # Number of bytes read from this memory
system.mem_ctrls.bytes_read::l2.prefetcher         6080                       # Number of bytes read from this memory
system.mem_ctrls.bytes_read::total              43392                       # Number of bytes read from this memory
system.mem_ctrls.bytes_inst_read::cpu.inst        25472                       # Number of instructions bytes read from this memory
system.mem_ctrls.bytes_inst_read::total         25472                       # Number of instructions bytes read from this memory
system.mem_ctrls.num_reads::cpu.inst              398                       # Number of read requests responded to by this memory
system.mem_ctrls.num_reads::cpu.data              185                       # Number of read requests responded to by this memory
system.mem_ctrls.num_reads::l2.prefetcher           95                       # Number of read requests responded to by this memory
system.mem_ctrls.num_reads::total                 678                       # Number of read requests responded to by this memory
system.mem_ctrls.bw_read::cpu.inst             184035                       # Total read bandwidth from this memory (bytes/s)
system.mem_ctrls.bw_read::cpu.data              85544                       # Total read bandwidth from this memory (bytes/s)
system.mem_ctrls.bw_read::l2.prefetcher         43928                       # Total read bandwidth from this memory (bytes/s)
system.mem_ctrls.bw_read::total                313508                       # Total read bandwidth from this memory (bytes/s)
system.mem_ctrls.bw_inst_read::cpu.inst        184035                       # Instruction read bandwidth from this memory (bytes/s)
system.mem_ctrls.bw_inst_read::total           184035                       # Instruction read bandwidth from this memory (bytes/s)
system.mem_ctrls.bw_total::cpu.inst            184035                       # Total bandwidth to/from this memory (bytes/s)
system.mem_ctrls.bw_total::cpu.data             85544                       # Total bandwidth to/from this memory (bytes/s)
system.mem_ctrls.bw_total::l2.prefetcher        43928                       # Total bandwidth to/from this memory (bytes/s)
system.mem_ctrls.bw_total::total               313508                       # Total bandwidth to/from this memory (bytes/s)
system.mem_ctrls.readReqs                         678                       # Number of read requests accepted
system.mem_ctrls.writeReqs                          0                       # Number of write requests accepted
system.mem_ctrls.readBursts                       678                       # Number of DRAM read bursts, including those serviced by the write queue
system.mem_ctrls.writeBursts                        0                       # Number of DRAM write bursts, including those merged in the write queue
system.mem_ctrls.bytesReadDRAM                  43392                       # Total number of bytes read from DRAM
system.mem_ctrls.bytesReadWrQ                       0                       # Total number of bytes read from write queue
system.mem_ctrls.bytesWritten                       0                       # Total number of bytes written to DRAM
system.mem_ctrls.bytesReadSys                   43392                       # Total read bytes from the system interface side
system.mem_ctrls.bytesWrittenSys                    0                       # Total written bytes from the system interface side
system.mem_ctrls.servicedByWrQ                      0                       # Number of DRAM read bursts serviced by the write queue
system.mem_ctrls.mergedWrBursts                     0                       # Number of DRAM write bursts merged with an existing one
system.mem_ctrls.neitherReadNorWriteReqs            0                       # Number of requests that are neither read nor write
system.mem_ctrls.perBankRdBursts::0               164                       # Per bank write bursts
system.mem_ctrls.perBankRdBursts::1                25                       # Per bank write bursts
system.mem_ctrls.perBankRdBursts::2                10                       # Per bank write bursts
system.mem_ctrls.perBankRdBursts::3                71                       # Per bank write bursts
system.mem_ctrls.perBankRdBursts::4                19                       # Per bank write bursts
system.mem_ctrls.perBankRdBursts::5                27                       # Per bank write bursts
system.mem_ctrls.perBankRdBursts::6                26                       # Per bank write bursts
system.mem_ctrls.perBankRdBursts::7                75                       # Per bank write bursts
system.mem_ctrls.perBankRdBursts::8                25                       # Per bank write bursts
system.mem_ctrls.perBankRdBursts::9                25                       # Per bank write bursts
system.mem_ctrls.perBankRdBursts::10               16                       # Per bank write bursts
system.mem_ctrls.perBankRdBursts::11               17                       # Per bank write bursts
system.mem_ctrls.perBankRdBursts::12               42                       # Per bank write bursts
system.mem_ctrls.perBankRdBursts::13               63                       # Per bank write bursts
system.mem_ctrls.perBankRdBursts::14               25                       # Per bank write bursts
system.mem_ctrls.perBankRdBursts::15               48                       # Per bank write bursts
system.mem_ctrls.perBankWrBursts::0                 0                       # Per bank write bursts
system.mem_ctrls.perBankWrBursts::1                 0                       # Per bank write bursts
system.mem_ctrls.perBankWrBursts::2                 0                       # Per bank write bursts
system.mem_ctrls.perBankWrBursts::3                 0                       # Per bank write bursts
system.mem_ctrls.perBankWrBursts::4                 0                       # Per bank write bursts
system.mem_ctrls.perBankWrBursts::5                 0                       # Per bank write bursts
system.mem_ctrls.perBankWrBursts::6                 0                       # Per bank write bursts
system.mem_ctrls.perBankWrBursts::7                 0                       # Per bank write bursts
system.mem_ctrls.perBankWrBursts::8                 0                       # Per bank write bursts
system.mem_ctrls.perBankWrBursts::9                 0                       # Per bank write bursts
system.mem_ctrls.perBankWrBursts::10                0                       # Per bank write bursts
system.mem_ctrls.perBankWrBursts::11                0                       # Per bank write bursts
system.mem_ctrls.perBankWrBursts::12                0                       # Per bank write bursts
system.mem_ctrls.perBankWrBursts::13                0                       # Per bank write bursts
system.mem_ctrls.perBankWrBursts::14                0                       # Per bank write bursts
system.mem_ctrls.perBankWrBursts::15                0                       # Per bank write bursts
system.mem_ctrls.numRdRetry                         0                       # Number of times read queue was full causing retry
system.mem_ctrls.numWrRetry                         0                       # Number of times write queue was full causing retry
system.mem_ctrls.totGap                  138408051500                       # Total gap between requests
system.mem_ctrls.readPktSize::0                     0                       # Read request sizes (log2)
system.mem_ctrls.readPktSize::1                     0                       # Read request sizes (log2)
system.mem_ctrls.readPktSize::2                     0                       # Read request sizes (log2)
system.mem_ctrls.readPktSize::3                     0                       # Read request sizes (log2)
system.mem_ctrls.readPktSize::4                     0                       # Read request sizes (log2)
system.mem_ctrls.readPktSize::5                     0                       # Read request sizes (log2)
system.mem_ctrls.readPktSize::6                   678                       # Read request sizes (log2)
system.mem_ctrls.writePktSize::0                    0                       # Write request sizes (log2)
system.mem_ctrls.writePktSize::1                    0                       # Write request sizes (log2)
system.mem_ctrls.writePktSize::2                    0                       # Write request sizes (log2)
system.mem_ctrls.writePktSize::3                    0                       # Write request sizes (log2)
system.mem_ctrls.writePktSize::4                    0                       # Write request sizes (log2)
system.mem_ctrls.writePktSize::5                    0                       # Write request sizes (log2)
system.mem_ctrls.writePktSize::6                    0                       # Write request sizes (log2)
system.mem_ctrls.rdQLenPdf::0                     355                       # What read queue length does an incoming req see
system.mem_ctrls.rdQLenPdf::1                     191                       # What read queue length does an incoming req see
system.mem_ctrls.rdQLenPdf::2                      80                       # What read queue length does an incoming req see
system.mem_ctrls.rdQLenPdf::3                      21                       # What read queue length does an incoming req see
system.mem_ctrls.rdQLenPdf::4                       9                       # What read queue length does an incoming req see
system.mem_ctrls.rdQLenPdf::5                       6                       # What read queue length does an incoming req see
system.mem_ctrls.rdQLenPdf::6                       4                       # What read queue length does an incoming req see
system.mem_ctrls.rdQLenPdf::7                       4                       # What read queue length does an incoming req see
system.mem_ctrls.rdQLenPdf::8                       4                       # What read queue length does an incoming req see
system.mem_ctrls.rdQLenPdf::9                       1                       # What read queue length does an incoming req see
system.mem_ctrls.rdQLenPdf::10                      1                       # What read queue length does an incoming req see
system.mem_ctrls.rdQLenPdf::11                      1                       # What read queue length does an incoming req see
system.mem_ctrls.rdQLenPdf::12                      1                       # What read queue length does an incoming req see
system.mem_ctrls.rdQLenPdf::13                      0                       # What read queue length does an incoming req see
system.mem_ctrls.rdQLenPdf::14                      0                       # What read queue length does an incoming req see
system.mem_ctrls.rdQLenPdf::15                      0                       # What read queue length does an incoming req see
system.mem_ctrls.rdQLenPdf::16                      0                       # What read queue length does an incoming req see
system.mem_ctrls.rdQLenPdf::17                      0                       # What read queue length does an incoming req see
system.mem_ctrls.rdQLenPdf::18                      0                       # What read queue length does an incoming req see
system.mem_ctrls.rdQLenPdf::19                      0                       # What read queue length does an incoming req see
system.mem_ctrls.rdQLenPdf::20                      0                       # What read queue length does an incoming req see
system.mem_ctrls.rdQLenPdf::21                      0                       # What read queue length does an incoming req see
system.mem_ctrls.rdQLenPdf::22                      0                       # What read queue length does an incoming req see
system.mem_ctrls.rdQLenPdf::23                      0                       # What read queue length does an incoming req see
system.mem_ctrls.rdQLenPdf::24                      0                       # What read queue length does an incoming req see
system.mem_ctrls.rdQLenPdf::25                      0                       # What read queue length does an incoming req see
system.mem_ctrls.rdQLenPdf::26                      0                       # What read queue length does an incoming req see
system.mem_ctrls.rdQLenPdf::27                      0                       # What read queue length does an incoming req see
system.mem_ctrls.rdQLenPdf::28                      0                       # What read queue length does an incoming req see
system.mem_ctrls.rdQLenPdf::29                      0                       # What read queue length does an incoming req see
system.mem_ctrls.rdQLenPdf::30                      0                       # What read queue length does an incoming req see
system.mem_ctrls.rdQLenPdf::31                      0                       # What read queue length does an incoming req see
system.mem_ctrls.wrQLenPdf::0                       0                       # What write queue length does an incoming req see
system.mem_ctrls.wrQLenPdf::1                       0                       # What write queue length does an incoming req see
system.mem_ctrls.wrQLenPdf::2                       0                       # What write queue length does an incoming req see
system.mem_ctrls.wrQLenPdf::3                       0                       # What write queue length does an incoming req see
system.mem_ctrls.wrQLenPdf::4                       0                       # What write queue length does an incoming req see
system.mem_ctrls.wrQLenPdf::5                       0                       # What write queue length does an incoming req see
system.mem_ctrls.wrQLenPdf::6                       0                       # What write queue length does an incoming req see
system.mem_ctrls.wrQLenPdf::7                       0                       # What write queue length does an incoming req see
system.mem_ctrls.wrQLenPdf::8                       0                       # What write queue length does an incoming req see
system.mem_ctrls.wrQLenPdf::9                       0                       # What write queue length does an incoming req see
system.mem_ctrls.wrQLenPdf::10                      0                       # What write queue length does an incoming req see
system.mem_ctrls.wrQLenPdf::11                      0                       # What write queue length does an incoming req see
system.mem_ctrls.wrQLenPdf::12                      0                       # What write queue length does an incoming req see
system.mem_ctrls.wrQLenPdf::13                      0                       # What write queue length does an incoming req see
system.mem_ctrls.wrQLenPdf::14                      0                       # What write queue length does an incoming req see
system.mem_ctrls.wrQLenPdf::15                      0                       # What write queue length does an incoming req see
system.mem_ctrls.wrQLenPdf::16                      0                       # What write queue length does an incoming req see
system.mem_ctrls.wrQLenPdf::17                      0                       # What write queue length does an incoming req see
system.mem_ctrls.wrQLenPdf::18                      0                       # What write queue length does an incoming req see
system.mem_ctrls.wrQLenPdf::19                      0                       # What write queue length does an incoming req see
system.mem_ctrls.wrQLenPdf::20                      0                       # What write queue length does an incoming req see
system.mem_ctrls.wrQLenPdf::21                      0                       # What write queue length does an incoming req see
system.mem_ctrls.wrQLenPdf::22                      0                       # What write queue length does an incoming req see
system.mem_ctrls.wrQLenPdf::23                      0                       # What write queue length does an incoming req see
system.mem_ctrls.wrQLenPdf::24                      0                       # What write queue length does an incoming req see
system.mem_ctrls.wrQLenPdf::25                      0                       # What write queue length does an incoming req see
system.mem_ctrls.wrQLenPdf::26                      0                       # What write queue length does an incoming req see
system.mem_ctrls.wrQLenPdf::27                      0                       # What write queue length does an incoming req see
system.mem_ctrls.wrQLenPdf::28                      0                       # What write queue length does an incoming req see
system.mem_ctrls.wrQLenPdf::29                      0                       # What write queue length does an incoming req see
system.mem_ctrls.wrQLenPdf::30                      0                       # What write queue length does an incoming req see
system.mem_ctrls.wrQLenPdf::31                      0                       # What write queue length does an incoming req see
system.mem_ctrls.wrQLenPdf::32                      0                       # What write queue length does an incoming req see
system.mem_ctrls.wrQLenPdf::33                      0                       # What write queue length does an incoming req see
system.mem_ctrls.wrQLenPdf::34                      0                       # What write queue length does an incoming req see
system.mem_ctrls.wrQLenPdf::35                      0                       # What write queue length does an incoming req see
system.mem_ctrls.wrQLenPdf::36                      0                       # What write queue length does an incoming req see
system.mem_ctrls.wrQLenPdf::37                      0                       # What write queue length does an incoming req see
system.mem_ctrls.wrQLenPdf::38                      0                       # What write queue length does an incoming req see
system.mem_ctrls.wrQLenPdf::39                      0                       # What write queue length does an incoming req see
system.mem_ctrls.wrQLenPdf::40                      0                       # What write queue length does an incoming req see
system.mem_ctrls.wrQLenPdf::41                      0                       # What write queue length does an incoming req see
system.mem_ctrls.wrQLenPdf::42                      0                       # What write queue length does an incoming req see
system.mem_ctrls.wrQLenPdf::43                      0                       # What write queue length does an incoming req see
system.mem_ctrls.wrQLenPdf::44                      0                       # What write queue length does an incoming req see
system.mem_ctrls.wrQLenPdf::45                      0                       # What write queue length does an incoming req see
system.mem_ctrls.wrQLenPdf::46                      0                       # What write queue length does an incoming req see
system.mem_ctrls.wrQLenPdf::47                      0                       # What write queue length does an incoming req see
system.mem_ctrls.wrQLenPdf::48                      0                       # What write queue length does an incoming req see
system.mem_ctrls.wrQLenPdf::49                      0                       # What write queue length does an incoming req see
system.mem_ctrls.wrQLenPdf::50                      0                       # What write queue length does an incoming req see
system.mem_ctrls.wrQLenPdf::51                      0                       # What write queue length does an incoming req see
system.mem_ctrls.wrQLenPdf::52                      0                       # What write queue length does an incoming req see
system.mem_ctrls.wrQLenPdf::53                      0                       # What write queue length does an incoming req see
system.mem_ctrls.wrQLenPdf::54                      0                       # What write queue length does an incoming req see
system.mem_ctrls.wrQLenPdf::55                      0                       # What write queue length does an incoming req see
system.mem_ctrls.wrQLenPdf::56                      0                       # What write queue length does an incoming req see
system.mem_ctrls.wrQLenPdf::57                      0                       # What write queue length does an incoming req see
system.mem_ctrls.wrQLenPdf::58                      0                       # What write queue length does an incoming req see
system.mem_ctrls.wrQLenPdf::59                      0                       # What write queue length does an incoming req see
system.mem_ctrls.wrQLenPdf::60                      0                       # What write queue length does an incoming req see
system.mem_ctrls.wrQLenPdf::61                      0                       # What write queue length does an incoming req see
system.mem_ctrls.wrQLenPdf::62                      0                       # What write queue length does an incoming req see
system.mem_ctrls.wrQLenPdf::63                      0                       # What write queue length does an incoming req see
system.mem_ctrls.bytesPerActivate::samples          138                       # Bytes accessed per row activation
system.mem_ctrls.bytesPerActivate::mean    291.710145                       # Bytes accessed per row activation
system.mem_ctrls.bytesPerActivate::gmean   172.426981                       # Bytes accessed per row activation
system.mem_ctrls.bytesPerActivate::stdev   319.112872                       # Bytes accessed per row activation
system.mem_ctrls.bytesPerActivate::0-127           54     39.13%     39.13% # Bytes accessed per row activation
system.mem_ctrls.bytesPerActivate::128-255           35     25.36%     64.49% # Bytes accessed per row activation
system.mem_ctrls.bytesPerActivate::256-383           14     10.14%     74.64% # Bytes accessed per row activation
system.mem_ctrls.bytesPerActivate::384-511            5      3.62%     78.26% # Bytes accessed per row activation
system.mem_ctrls.bytesPerActivate::512-639            7      5.07%     83.33% # Bytes accessed per row activation
system.mem_ctrls.bytesPerActivate::640-767            3      2.17%     85.51% # Bytes accessed per row activation
system.mem_ctrls.bytesPerActivate::768-895            4      2.90%     88.41% # Bytes accessed per row activation
system.mem_ctrls.bytesPerActivate::896-1023            3      2.17%     90.58% # Bytes accessed per row activation
system.mem_ctrls.bytesPerActivate::1024-1151           13      9.42%    100.00% # Bytes accessed per row activation
system.mem_ctrls.bytesPerActivate::total          138                       # Bytes accessed per row activation
system.mem_ctrls.totQLat                     30124257                       # Total ticks spent queuing
system.mem_ctrls.totMemAccLat                42836757                       # Total ticks spent from burst creation until serviced by the DRAM
system.mem_ctrls.totBusLat                    3390000                       # Total ticks spent in databus transfers
system.mem_ctrls.avgQLat                     44431.06                       # Average queueing delay per DRAM burst
system.mem_ctrls.avgBusLat                    5000.00                       # Average bus latency per DRAM burst
system.mem_ctrls.avgMemAccLat                63181.06                       # Average memory access latency per DRAM burst
system.mem_ctrls.avgRdBW                         0.31                       # Average DRAM read bandwidth in MiByte/s
system.mem_ctrls.avgWrBW                         0.00                       # Average achieved write bandwidth in MiByte/s
system.mem_ctrls.avgRdBWSys                      0.31                       # Average system read bandwidth in MiByte/s
system.mem_ctrls.avgWrBWSys                      0.00                       # Average system write bandwidth in MiByte/s
system.mem_ctrls.peakBW                      12800.00                       # Theoretical peak bandwidth in MiByte/s
system.mem_ctrls.busUtil                         0.00                       # Data bus utilization in percentage
system.mem_ctrls.busUtilRead                     0.00                       # Data bus utilization in percentage for reads
system.mem_ctrls.busUtilWrite                    0.00                       # Data bus utilization in percentage for writes
system.mem_ctrls.avgRdQLen                       2.32                       # Average read queue length when enqueuing
system.mem_ctrls.avgWrQLen                       0.00                       # Average write queue length when enqueuing
system.mem_ctrls.readRowHits                      529                       # Number of row buffer hits during reads
system.mem_ctrls.writeRowHits                       0                       # Number of row buffer hits during writes
system.mem_ctrls.readRowHitRate                 78.02                       # Row buffer hit rate for reads
system.mem_ctrls.writeRowHitRate                  nan                       # Row buffer hit rate for writes
system.mem_ctrls.avgGap                  204141668.88                       # Average gap between requests
system.mem_ctrls.pageHitRate                    78.02                       # Row buffer hit rate, read and write combined
system.mem_ctrls_0.actEnergy                   599760                       # Energy for activate commands per rank (pJ)
system.mem_ctrls_0.preEnergy                   296010                       # Energy for precharge commands per rank (pJ)
system.mem_ctrls_0.readEnergy                 2977380                       # Energy for read commands per rank (pJ)
system.mem_ctrls_0.writeEnergy                      0                       # Energy for write commands per rank (pJ)
system.mem_ctrls_0.refreshEnergy         11678160.000000                       # Energy for refresh commands per rank (pJ)
system.mem_ctrls_0.actBackEnergy              6687810                       # Energy for active background per rank (pJ)
system.mem_ctrls_0.preBackEnergy               698880                       # Energy for precharge background per rank (pJ)
system.mem_ctrls_0.actPowerDownEnergy        25537710                       # Energy for active power-down per rank (pJ)
system.mem_ctrls_0.prePowerDownEnergy        16471680                       # Energy for precharge power-down per rank (pJ)
system.mem_ctrls_0.selfRefreshEnergy      33193023900                       # Energy for self refresh per rank (pJ)
system.mem_ctrls_0.totalEnergy            33257971290                       # Total energy per rank (pJ)
system.mem_ctrls_0.averagePower            240.289117                       # Core power per rank (mW)
system.mem_ctrls_0.totalIdleTime         138391585500                       # Total Idle time Per DRAM Rank
system.mem_ctrls_0.memoryStateTime::IDLE      1375000                       # Time in different power states
system.mem_ctrls_0.memoryStateTime::REF       4970000                       # Time in different power states
system.mem_ctrls_0.memoryStateTime::SREF 138292762500                       # Time in different power states
system.mem_ctrls_0.memoryStateTime::PRE_PDN     42896250                       # Time in different power states
system.mem_ctrls_0.memoryStateTime::ACT      10141750                       # Time in different power states
system.mem_ctrls_0.memoryStateTime::ACT_PDN     56000500                       # Time in different power states
system.mem_ctrls_1.actEnergy                   464100                       # Energy for activate commands per rank (pJ)
system.mem_ctrls_1.preEnergy                   227700                       # Energy for precharge commands per rank (pJ)
system.mem_ctrls_1.readEnergy                 1863540                       # Energy for read commands per rank (pJ)
system.mem_ctrls_1.writeEnergy                      0                       # Energy for write commands per rank (pJ)
system.mem_ctrls_1.refreshEnergy         21512400.000000                       # Energy for refresh commands per rank (pJ)
system.mem_ctrls_1.actBackEnergy              6985350                       # Energy for active background per rank (pJ)
system.mem_ctrls_1.preBackEnergy              1462560                       # Energy for precharge background per rank (pJ)
system.mem_ctrls_1.actPowerDownEnergy        43170090                       # Energy for active power-down per rank (pJ)
system.mem_ctrls_1.prePowerDownEnergy        31742880                       # Energy for precharge power-down per rank (pJ)
system.mem_ctrls_1.selfRefreshEnergy      33176878740                       # Energy for self refresh per rank (pJ)
system.mem_ctrls_1.totalEnergy            33284307360                       # Total energy per rank (pJ)
system.mem_ctrls_1.averagePower            240.479396                       # Core power per rank (mW)
system.mem_ctrls_1.totalIdleTime         138388964500                       # Total Idle time Per DRAM Rank
system.mem_ctrls_1.memoryStateTime::IDLE      3079000                       # Time in different power states
system.mem_ctrls_1.memoryStateTime::REF       9166000                       # Time in different power states
system.mem_ctrls_1.memoryStateTime::SREF 138211686000                       # Time in different power states
system.mem_ctrls_1.memoryStateTime::PRE_PDN     82666750                       # Time in different power states
system.mem_ctrls_1.memoryStateTime::ACT       6873750                       # Time in different power states
system.mem_ctrls_1.memoryStateTime::ACT_PDN     94674500                       # Time in different power states
system.pwrStateResidencyTicks::UNDEFINED 138408146000                       # Cumulative time (in ticks) in various power states
system.cpu.branchPred.lookups                35872462                       # Number of BP lookups
system.cpu.branchPred.condPredicted          35659900                       # Number of conditional branches predicted
system.cpu.branchPred.condIncorrect           3946494                       # Number of conditional branches incorrect
system.cpu.branchPred.BTBLookups             30894835                       # Number of BTB lookups
system.cpu.branchPred.BTBHits                30884255                       # Number of BTB hits
system.cpu.branchPred.BTBCorrect                    0                       # Number of correct BTB predictions (this stat may not work properly.
system.cpu.branchPred.BTBHitPct             99.965755                       # BTB Hit Percentage
system.cpu.branchPred.usedRAS                   53780                       # Number of times the RAS was used to get a target.
system.cpu.branchPred.RASInCorrect                  1                       # Number of incorrect RAS predictions.
system.cpu.branchPred.indirectLookups             579                       # Number of indirect predictor lookups.
system.cpu.branchPred.indirectHits                378                       # Number of indirect target hits.
system.cpu.branchPred.indirectMisses              201                       # Number of indirect misses.
system.cpu.branchPredindirectMispredicted           60                       # Number of mispredicted indirect branches.
system.cpu.branchPred.allExpertsWrong         1342115                       # Number of times all experts voted incorrectly.
system.cpu.branchPred.allExpertsRight        15452461                       # Number of times all experts voted correctly.
system.cpu.branchPred.lowWeightExpertsWon       335299                       # Number of times where lower weighted experts overrode the highest weight expert.
system.cpu.branchPred.oneCorrectExpert        1934369                       # Number of times when there is a single correct expert on a mispredict.
system.cpu.branchPred.twoCorrectExpert         669381                       # Number of times when there are two correct experts on a mispredict.
system.cpu.branchPred.threeCorrectExpert            0                       # Number of times when there are three correct experts on a mispredict.
system.cpu_voltage_domain.voltage                   1                       # Voltage in Volts
system.cpu_clk_domain.clock                       500                       # Clock period in ticks
system.cpu.dstage2_mmu.stage2_tlb.walker.pwrStateResidencyTicks::UNDEFINED 138408146000                       # Cumulative time (in ticks) in various power states
system.cpu.dstage2_mmu.stage2_tlb.walker.walks            0                       # Table walker walks requested
system.cpu.dstage2_mmu.stage2_tlb.walker.walkRequestOrigin_Requested::Data            0                       # Table walker requests started/completed, data/inst
system.cpu.dstage2_mmu.stage2_tlb.walker.walkRequestOrigin_Requested::Inst            0                       # Table walker requests started/completed, data/inst
system.cpu.dstage2_mmu.stage2_tlb.walker.walkRequestOrigin_Requested::total            0                       # Table walker requests started/completed, data/inst
system.cpu.dstage2_mmu.stage2_tlb.walker.walkRequestOrigin_Completed::Data            0                       # Table walker requests started/completed, data/inst
system.cpu.dstage2_mmu.stage2_tlb.walker.walkRequestOrigin_Completed::Inst            0                       # Table walker requests started/completed, data/inst
system.cpu.dstage2_mmu.stage2_tlb.walker.walkRequestOrigin_Completed::total            0                       # Table walker requests started/completed, data/inst
system.cpu.dstage2_mmu.stage2_tlb.walker.walkRequestOrigin::total            0                       # Table walker requests started/completed, data/inst
system.cpu.dstage2_mmu.stage2_tlb.inst_hits            0                       # ITB inst hits
system.cpu.dstage2_mmu.stage2_tlb.inst_misses            0                       # ITB inst misses
system.cpu.dstage2_mmu.stage2_tlb.read_hits            0                       # DTB read hits
system.cpu.dstage2_mmu.stage2_tlb.read_misses            0                       # DTB read misses
system.cpu.dstage2_mmu.stage2_tlb.write_hits            0                       # DTB write hits
system.cpu.dstage2_mmu.stage2_tlb.write_misses            0                       # DTB write misses
system.cpu.dstage2_mmu.stage2_tlb.flush_tlb            0                       # Number of times complete TLB was flushed
system.cpu.dstage2_mmu.stage2_tlb.flush_tlb_mva            0                       # Number of times TLB was flushed by MVA
system.cpu.dstage2_mmu.stage2_tlb.flush_tlb_mva_asid            0                       # Number of times TLB was flushed by MVA & ASID
system.cpu.dstage2_mmu.stage2_tlb.flush_tlb_asid            0                       # Number of times TLB was flushed by ASID
system.cpu.dstage2_mmu.stage2_tlb.flush_entries            0                       # Number of entries that have been flushed from TLB
system.cpu.dstage2_mmu.stage2_tlb.align_faults            0                       # Number of TLB faults due to alignment restrictions
system.cpu.dstage2_mmu.stage2_tlb.prefetch_faults            0                       # Number of TLB faults due to prefetch
system.cpu.dstage2_mmu.stage2_tlb.domain_faults            0                       # Number of TLB faults due to domain restrictions
system.cpu.dstage2_mmu.stage2_tlb.perms_faults            0                       # Number of TLB faults due to permissions restrictions
system.cpu.dstage2_mmu.stage2_tlb.read_accesses            0                       # DTB read accesses
system.cpu.dstage2_mmu.stage2_tlb.write_accesses            0                       # DTB write accesses
system.cpu.dstage2_mmu.stage2_tlb.inst_accesses            0                       # ITB inst accesses
system.cpu.dstage2_mmu.stage2_tlb.hits              0                       # DTB hits
system.cpu.dstage2_mmu.stage2_tlb.misses            0                       # DTB misses
system.cpu.dstage2_mmu.stage2_tlb.accesses            0                       # DTB accesses
system.cpu.dtb.walker.pwrStateResidencyTicks::UNDEFINED 138408146000                       # Cumulative time (in ticks) in various power states
system.cpu.dtb.walker.walks                         0                       # Table walker walks requested
system.cpu.dtb.walker.walkRequestOrigin_Requested::Data            0                       # Table walker requests started/completed, data/inst
system.cpu.dtb.walker.walkRequestOrigin_Requested::Inst            0                       # Table walker requests started/completed, data/inst
system.cpu.dtb.walker.walkRequestOrigin_Requested::total            0                       # Table walker requests started/completed, data/inst
system.cpu.dtb.walker.walkRequestOrigin_Completed::Data            0                       # Table walker requests started/completed, data/inst
system.cpu.dtb.walker.walkRequestOrigin_Completed::Inst            0                       # Table walker requests started/completed, data/inst
system.cpu.dtb.walker.walkRequestOrigin_Completed::total            0                       # Table walker requests started/completed, data/inst
system.cpu.dtb.walker.walkRequestOrigin::total            0                       # Table walker requests started/completed, data/inst
system.cpu.dtb.inst_hits                            0                       # ITB inst hits
system.cpu.dtb.inst_misses                          0                       # ITB inst misses
system.cpu.dtb.read_hits                            0                       # DTB read hits
system.cpu.dtb.read_misses                          0                       # DTB read misses
system.cpu.dtb.write_hits                           0                       # DTB write hits
system.cpu.dtb.write_misses                         0                       # DTB write misses
system.cpu.dtb.flush_tlb                            0                       # Number of times complete TLB was flushed
system.cpu.dtb.flush_tlb_mva                        0                       # Number of times TLB was flushed by MVA
system.cpu.dtb.flush_tlb_mva_asid                   0                       # Number of times TLB was flushed by MVA & ASID
system.cpu.dtb.flush_tlb_asid                       0                       # Number of times TLB was flushed by ASID
system.cpu.dtb.flush_entries                        0                       # Number of entries that have been flushed from TLB
system.cpu.dtb.align_faults                         0                       # Number of TLB faults due to alignment restrictions
system.cpu.dtb.prefetch_faults                      0                       # Number of TLB faults due to prefetch
system.cpu.dtb.domain_faults                        0                       # Number of TLB faults due to domain restrictions
system.cpu.dtb.perms_faults                         0                       # Number of TLB faults due to permissions restrictions
system.cpu.dtb.read_accesses                        0                       # DTB read accesses
system.cpu.dtb.write_accesses                       0                       # DTB write accesses
system.cpu.dtb.inst_accesses                        0                       # ITB inst accesses
system.cpu.dtb.hits                                 0                       # DTB hits
system.cpu.dtb.misses                               0                       # DTB misses
system.cpu.dtb.accesses                             0                       # DTB accesses
system.cpu.istage2_mmu.stage2_tlb.walker.pwrStateResidencyTicks::UNDEFINED 138408146000                       # Cumulative time (in ticks) in various power states
system.cpu.istage2_mmu.stage2_tlb.walker.walks            0                       # Table walker walks requested
system.cpu.istage2_mmu.stage2_tlb.walker.walkRequestOrigin_Requested::Data            0                       # Table walker requests started/completed, data/inst
system.cpu.istage2_mmu.stage2_tlb.walker.walkRequestOrigin_Requested::Inst            0                       # Table walker requests started/completed, data/inst
system.cpu.istage2_mmu.stage2_tlb.walker.walkRequestOrigin_Requested::total            0                       # Table walker requests started/completed, data/inst
system.cpu.istage2_mmu.stage2_tlb.walker.walkRequestOrigin_Completed::Data            0                       # Table walker requests started/completed, data/inst
system.cpu.istage2_mmu.stage2_tlb.walker.walkRequestOrigin_Completed::Inst            0                       # Table walker requests started/completed, data/inst
system.cpu.istage2_mmu.stage2_tlb.walker.walkRequestOrigin_Completed::total            0                       # Table walker requests started/completed, data/inst
system.cpu.istage2_mmu.stage2_tlb.walker.walkRequestOrigin::total            0                       # Table walker requests started/completed, data/inst
system.cpu.istage2_mmu.stage2_tlb.inst_hits            0                       # ITB inst hits
system.cpu.istage2_mmu.stage2_tlb.inst_misses            0                       # ITB inst misses
system.cpu.istage2_mmu.stage2_tlb.read_hits            0                       # DTB read hits
system.cpu.istage2_mmu.stage2_tlb.read_misses            0                       # DTB read misses
system.cpu.istage2_mmu.stage2_tlb.write_hits            0                       # DTB write hits
system.cpu.istage2_mmu.stage2_tlb.write_misses            0                       # DTB write misses
system.cpu.istage2_mmu.stage2_tlb.flush_tlb            0                       # Number of times complete TLB was flushed
system.cpu.istage2_mmu.stage2_tlb.flush_tlb_mva            0                       # Number of times TLB was flushed by MVA
system.cpu.istage2_mmu.stage2_tlb.flush_tlb_mva_asid            0                       # Number of times TLB was flushed by MVA & ASID
system.cpu.istage2_mmu.stage2_tlb.flush_tlb_asid            0                       # Number of times TLB was flushed by ASID
system.cpu.istage2_mmu.stage2_tlb.flush_entries            0                       # Number of entries that have been flushed from TLB
system.cpu.istage2_mmu.stage2_tlb.align_faults            0                       # Number of TLB faults due to alignment restrictions
system.cpu.istage2_mmu.stage2_tlb.prefetch_faults            0                       # Number of TLB faults due to prefetch
system.cpu.istage2_mmu.stage2_tlb.domain_faults            0                       # Number of TLB faults due to domain restrictions
system.cpu.istage2_mmu.stage2_tlb.perms_faults            0                       # Number of TLB faults due to permissions restrictions
system.cpu.istage2_mmu.stage2_tlb.read_accesses            0                       # DTB read accesses
system.cpu.istage2_mmu.stage2_tlb.write_accesses            0                       # DTB write accesses
system.cpu.istage2_mmu.stage2_tlb.inst_accesses            0                       # ITB inst accesses
system.cpu.istage2_mmu.stage2_tlb.hits              0                       # DTB hits
system.cpu.istage2_mmu.stage2_tlb.misses            0                       # DTB misses
system.cpu.istage2_mmu.stage2_tlb.accesses            0                       # DTB accesses
system.cpu.itb.walker.pwrStateResidencyTicks::UNDEFINED 138408146000                       # Cumulative time (in ticks) in various power states
system.cpu.itb.walker.walks                         0                       # Table walker walks requested
system.cpu.itb.walker.walkRequestOrigin_Requested::Data            0                       # Table walker requests started/completed, data/inst
system.cpu.itb.walker.walkRequestOrigin_Requested::Inst            0                       # Table walker requests started/completed, data/inst
system.cpu.itb.walker.walkRequestOrigin_Requested::total            0                       # Table walker requests started/completed, data/inst
system.cpu.itb.walker.walkRequestOrigin_Completed::Data            0                       # Table walker requests started/completed, data/inst
system.cpu.itb.walker.walkRequestOrigin_Completed::Inst            0                       # Table walker requests started/completed, data/inst
system.cpu.itb.walker.walkRequestOrigin_Completed::total            0                       # Table walker requests started/completed, data/inst
system.cpu.itb.walker.walkRequestOrigin::total            0                       # Table walker requests started/completed, data/inst
system.cpu.itb.inst_hits                            0                       # ITB inst hits
system.cpu.itb.inst_misses                          0                       # ITB inst misses
system.cpu.itb.read_hits                            0                       # DTB read hits
system.cpu.itb.read_misses                          0                       # DTB read misses
system.cpu.itb.write_hits                           0                       # DTB write hits
system.cpu.itb.write_misses                         0                       # DTB write misses
system.cpu.itb.flush_tlb                            0                       # Number of times complete TLB was flushed
system.cpu.itb.flush_tlb_mva                        0                       # Number of times TLB was flushed by MVA
system.cpu.itb.flush_tlb_mva_asid                   0                       # Number of times TLB was flushed by MVA & ASID
system.cpu.itb.flush_tlb_asid                       0                       # Number of times TLB was flushed by ASID
system.cpu.itb.flush_entries                        0                       # Number of entries that have been flushed from TLB
system.cpu.itb.align_faults                         0                       # Number of TLB faults due to alignment restrictions
system.cpu.itb.prefetch_faults                      0                       # Number of TLB faults due to prefetch
system.cpu.itb.domain_faults                        0                       # Number of TLB faults due to domain restrictions
system.cpu.itb.perms_faults                         0                       # Number of TLB faults due to permissions restrictions
system.cpu.itb.read_accesses                        0                       # DTB read accesses
system.cpu.itb.write_accesses                       0                       # DTB write accesses
system.cpu.itb.inst_accesses                        0                       # ITB inst accesses
system.cpu.itb.hits                                 0                       # DTB hits
system.cpu.itb.misses                               0                       # DTB misses
system.cpu.itb.accesses                             0                       # DTB accesses
system.cpu.workload.numSyscalls                    11                       # Number of system calls
system.cpu.pwrStateResidencyTicks::ON    138408146000                       # Cumulative time (in ticks) in various power states
system.cpu.numCycles                        276816293                       # number of cpu cycles simulated
system.cpu.numWorkItemsStarted                      0                       # number of work items this cpu started
system.cpu.numWorkItemsCompleted                    0                       # number of work items this cpu completed
system.cpu.fetch.icacheStallCycles            3954249                       # Number of cycles fetch is stalled on an Icache miss
system.cpu.fetch.Insts                      559064210                       # Number of instructions fetch has processed
system.cpu.fetch.Branches                    35872462                       # Number of branches that fetch encountered
system.cpu.fetch.predictedBranches           30938413                       # Number of branches that fetch has predicted taken
system.cpu.fetch.Cycles                     268877196                       # Number of cycles fetch has run and was not squashing or blocked
system.cpu.fetch.SquashCycles                 7896466                       # Number of cycles fetch has spent squashing
system.cpu.fetch.MiscStallCycles                   30                       # Number of cycles fetch has spent waiting on interrupts, or bad addresses, or out of MSHRs
system.cpu.fetch.IcacheWaitRetryStallCycles          469                       # Number of stall cycles due to full MSHR
system.cpu.fetch.CacheLines                 152887623                       # Number of cache lines fetched
system.cpu.fetch.IcacheSquashes                   249                       # Number of outstanding Icache misses that were squashed
system.cpu.fetch.rateDist::samples          276780177                       # Number of instructions fetched each cycle (Total)
system.cpu.fetch.rateDist::mean              2.020083                       # Number of instructions fetched each cycle (Total)
system.cpu.fetch.rateDist::stdev             1.021873                       # Number of instructions fetched each cycle (Total)
system.cpu.fetch.rateDist::underflows               0      0.00%      0.00% # Number of instructions fetched each cycle (Total)
system.cpu.fetch.rateDist::0                  7996190      2.89%      2.89% # Number of instructions fetched each cycle (Total)
system.cpu.fetch.rateDist::1                117798351     42.56%     45.45% # Number of instructions fetched each cycle (Total)
system.cpu.fetch.rateDist::2                 11636260      4.20%     49.65% # Number of instructions fetched each cycle (Total)
system.cpu.fetch.rateDist::3                139349376     50.35%    100.00% # Number of instructions fetched each cycle (Total)
system.cpu.fetch.rateDist::overflows                0      0.00%    100.00% # Number of instructions fetched each cycle (Total)
system.cpu.fetch.rateDist::min_value                0                       # Number of instructions fetched each cycle (Total)
system.cpu.fetch.rateDist::max_value                3                       # Number of instructions fetched each cycle (Total)
system.cpu.fetch.rateDist::total            276780177                       # Number of instructions fetched each cycle (Total)
system.cpu.fetch.branchRate                  0.129589                       # Number of branch fetches per cycle
system.cpu.fetch.rate                        2.019622                       # Number of inst fetches per cycle
system.cpu.decode.IdleCycles                  9949971                       # Number of cycles decode is idle
system.cpu.decode.BlockedCycles              10254531                       # Number of cycles decode is blocked
system.cpu.decode.RunCycles                 248617985                       # Number of cycles decode is running
system.cpu.decode.UnblockCycles               4009646                       # Number of cycles decode is unblocking
system.cpu.decode.SquashCycles                3948044                       # Number of cycles decode is squashing
system.cpu.decode.BranchResolved             28813330                       # Number of times decode resolved a branch
system.cpu.decode.BranchMispred                   193                       # Number of times decode detected a branch misprediction
system.cpu.decode.DecodedInsts              533744518                       # Number of instructions handled by decode
system.cpu.decode.SquashedInsts              17063672                       # Number of squashed instructions handled by decode
system.cpu.rename.SquashCycles                3948044                       # Number of cycles rename is squashing
system.cpu.rename.IdleCycles                 21958078                       # Number of cycles rename is idle
system.cpu.rename.BlockCycles                 9808197                       # Number of cycles rename is blocking
system.cpu.rename.serializeStallCycles          12574                       # count of cycles rename stalled for serializing inst
system.cpu.rename.RunCycles                 240602153                       # Number of cycles rename is running
system.cpu.rename.UnblockCycles                451131                       # Number of cycles rename is unblocking
system.cpu.rename.RenamedInsts              517516550                       # Number of instructions processed by rename
system.cpu.rename.SquashedInsts               8834617                       # Number of squashed instructions processed by rename
system.cpu.rename.ROBFullEvents                312118                       # Number of times rename has blocked due to ROB full
system.cpu.rename.SQFullEvents                   5698                       # Number of times rename has blocked due to SQ full
system.cpu.rename.FullRegisterEvents              655                       # Number of times there has been no free registers
system.cpu.rename.RenamedOperands           541775580                       # Number of destination operands rename has renamed
system.cpu.rename.RenameLookups             637078179                       # Number of register rename lookups that rename has made
system.cpu.rename.int_rename_lookups        538956828                       # Number of integer rename lookups
system.cpu.rename.vec_rename_lookups             7613                       # Number of vector rename lookups
system.cpu.rename.CommittedMaps             425877352                       # Number of HB maps that are committed
system.cpu.rename.UndoneMaps                115898228                       # Number of HB maps that are undone due to squashing
system.cpu.rename.serializingInsts                404                       # count of serializing insts renamed
system.cpu.rename.tempSerializingInsts            277                       # count of temporary serializing insts renamed
system.cpu.rename.skidInsts                    662911                       # count of insts added to the skid buffer
system.cpu.memDep0.insertedLoads            165648908                       # Number of loads inserted to the mem dependence unit.
system.cpu.memDep0.insertedStores            39703912                       # Number of stores inserted to the mem dependence unit.
system.cpu.memDep0.conflictingLoads          38591139                       # Number of conflicting loads.
system.cpu.memDep0.conflictingStores                6                       # Number of conflicting stores.
system.cpu.iq.iqInstsAdded                  506804141                       # Number of instructions added to the IQ (excludes non-spec)
system.cpu.iq.iqNonSpecInstsAdded                 277                       # Number of non-speculative instructions added to the IQ
system.cpu.iq.iqInstsIssued                 478815384                       # Number of instructions issued
system.cpu.iq.iqSquashedInstsIssued            982142                       # Number of squashed instructions issued
system.cpu.iq.iqSquashedInstsExamined        99178036                       # Number of squashed instructions iterated over during squash; mainly for profiling
system.cpu.iq.iqSquashedOperandsExamined     65679382                       # Number of squashed operands that are examined and possibly removed from graph
system.cpu.iq.iqSquashedNonSpecRemoved             49                       # Number of squashed non-spec instructions that were removed
system.cpu.iq.issued_per_cycle::samples     276780177                       # Number of insts issued each cycle
system.cpu.iq.issued_per_cycle::mean         1.729948                       # Number of insts issued each cycle
system.cpu.iq.issued_per_cycle::stdev        1.007077                       # Number of insts issued each cycle
system.cpu.iq.issued_per_cycle::underflows            0      0.00%      0.00% # Number of insts issued each cycle
system.cpu.iq.issued_per_cycle::0            43971390     15.89%     15.89% # Number of insts issued each cycle
system.cpu.iq.issued_per_cycle::1            54763955     19.79%     35.67% # Number of insts issued each cycle
system.cpu.iq.issued_per_cycle::2           111225552     40.19%     75.86% # Number of insts issued each cycle
system.cpu.iq.issued_per_cycle::3            65676891     23.73%     99.59% # Number of insts issued each cycle
system.cpu.iq.issued_per_cycle::4             1142293      0.41%    100.00% # Number of insts issued each cycle
system.cpu.iq.issued_per_cycle::5                  96      0.00%    100.00% # Number of insts issued each cycle
system.cpu.iq.issued_per_cycle::6                   0      0.00%    100.00% # Number of insts issued each cycle
system.cpu.iq.issued_per_cycle::7                   0      0.00%    100.00% # Number of insts issued each cycle
system.cpu.iq.issued_per_cycle::8                   0      0.00%    100.00% # Number of insts issued each cycle
system.cpu.iq.issued_per_cycle::overflows            0      0.00%    100.00% # Number of insts issued each cycle
system.cpu.iq.issued_per_cycle::min_value            0                       # Number of insts issued each cycle
system.cpu.iq.issued_per_cycle::max_value            5                       # Number of insts issued each cycle
system.cpu.iq.issued_per_cycle::total       276780177                       # Number of insts issued each cycle
system.cpu.iq.fu_full::No_OpClass                   0      0.00%      0.00% # attempts to use FU when none available
system.cpu.iq.fu_full::IntAlu                11360322     14.93%     14.93% # attempts to use FU when none available
system.cpu.iq.fu_full::IntMult                      0      0.00%     14.93% # attempts to use FU when none available
system.cpu.iq.fu_full::IntDiv                       0      0.00%     14.93% # attempts to use FU when none available
system.cpu.iq.fu_full::FloatAdd                     0      0.00%     14.93% # attempts to use FU when none available
system.cpu.iq.fu_full::FloatCmp                     0      0.00%     14.93% # attempts to use FU when none available
system.cpu.iq.fu_full::FloatCvt                     0      0.00%     14.93% # attempts to use FU when none available
system.cpu.iq.fu_full::FloatMult                    0      0.00%     14.93% # attempts to use FU when none available
system.cpu.iq.fu_full::FloatMultAcc                 0      0.00%     14.93% # attempts to use FU when none available
system.cpu.iq.fu_full::FloatDiv                     0      0.00%     14.93% # attempts to use FU when none available
system.cpu.iq.fu_full::FloatMisc                    0      0.00%     14.93% # attempts to use FU when none available
system.cpu.iq.fu_full::FloatSqrt                    0      0.00%     14.93% # attempts to use FU when none available
system.cpu.iq.fu_full::SimdAdd                      0      0.00%     14.93% # attempts to use FU when none available
system.cpu.iq.fu_full::SimdAddAcc                   0      0.00%     14.93% # attempts to use FU when none available
system.cpu.iq.fu_full::SimdAlu                      6      0.00%     14.93% # attempts to use FU when none available
system.cpu.iq.fu_full::SimdCmp                    102      0.00%     14.93% # attempts to use FU when none available
system.cpu.iq.fu_full::SimdCvt                      0      0.00%     14.93% # attempts to use FU when none available
system.cpu.iq.fu_full::SimdMisc                     0      0.00%     14.93% # attempts to use FU when none available
system.cpu.iq.fu_full::SimdMult                     0      0.00%     14.93% # attempts to use FU when none available
system.cpu.iq.fu_full::SimdMultAcc                  0      0.00%     14.93% # attempts to use FU when none available
system.cpu.iq.fu_full::SimdShift                    0      0.00%     14.93% # attempts to use FU when none available
system.cpu.iq.fu_full::SimdShiftAcc                 0      0.00%     14.93% # attempts to use FU when none available
system.cpu.iq.fu_full::SimdSqrt                     0      0.00%     14.93% # attempts to use FU when none available
system.cpu.iq.fu_full::SimdFloatAdd                 0      0.00%     14.93% # attempts to use FU when none available
system.cpu.iq.fu_full::SimdFloatAlu                 0      0.00%     14.93% # attempts to use FU when none available
system.cpu.iq.fu_full::SimdFloatCmp                 0      0.00%     14.93% # attempts to use FU when none available
system.cpu.iq.fu_full::SimdFloatCvt                 0      0.00%     14.93% # attempts to use FU when none available
system.cpu.iq.fu_full::SimdFloatDiv                 0      0.00%     14.93% # attempts to use FU when none available
system.cpu.iq.fu_full::SimdFloatMisc                0      0.00%     14.93% # attempts to use FU when none available
system.cpu.iq.fu_full::SimdFloatMult                0      0.00%     14.93% # attempts to use FU when none available
system.cpu.iq.fu_full::SimdFloatMultAcc             0      0.00%     14.93% # attempts to use FU when none available
system.cpu.iq.fu_full::SimdFloatSqrt                0      0.00%     14.93% # attempts to use FU when none available
system.cpu.iq.fu_full::MemRead               59552044     78.26%     93.19% # attempts to use FU when none available
system.cpu.iq.fu_full::MemWrite               5181287      6.81%    100.00% # attempts to use FU when none available
system.cpu.iq.fu_full::FloatMemRead                 0      0.00%    100.00% # attempts to use FU when none available
system.cpu.iq.fu_full::FloatMemWrite                0      0.00%    100.00% # attempts to use FU when none available
system.cpu.iq.fu_full::IprAccess                    0      0.00%    100.00% # attempts to use FU when none available
system.cpu.iq.fu_full::InstPrefetch                 0      0.00%    100.00% # attempts to use FU when none available
system.cpu.iq.FU_type_0::No_OpClass               203      0.00%      0.00% # Type of FU issued
system.cpu.iq.FU_type_0::IntAlu             283637441     59.24%     59.24% # Type of FU issued
system.cpu.iq.FU_type_0::IntMult               151556      0.03%     59.27% # Type of FU issued
system.cpu.iq.FU_type_0::IntDiv                     2      0.00%     59.27% # Type of FU issued
system.cpu.iq.FU_type_0::FloatAdd                   0      0.00%     59.27% # Type of FU issued
system.cpu.iq.FU_type_0::FloatCmp                   0      0.00%     59.27% # Type of FU issued
system.cpu.iq.FU_type_0::FloatCvt                   0      0.00%     59.27% # Type of FU issued
system.cpu.iq.FU_type_0::FloatMult                  0      0.00%     59.27% # Type of FU issued
system.cpu.iq.FU_type_0::FloatMultAcc               0      0.00%     59.27% # Type of FU issued
system.cpu.iq.FU_type_0::FloatDiv                   0      0.00%     59.27% # Type of FU issued
system.cpu.iq.FU_type_0::FloatMisc                  0      0.00%     59.27% # Type of FU issued
system.cpu.iq.FU_type_0::FloatSqrt                  0      0.00%     59.27% # Type of FU issued
system.cpu.iq.FU_type_0::SimdAdd                  511      0.00%     59.27% # Type of FU issued
system.cpu.iq.FU_type_0::SimdAddAcc                 0      0.00%     59.27% # Type of FU issued
system.cpu.iq.FU_type_0::SimdAlu                  908      0.00%     59.27% # Type of FU issued
system.cpu.iq.FU_type_0::SimdCmp                  812      0.00%     59.27% # Type of FU issued
system.cpu.iq.FU_type_0::SimdCvt                    0      0.00%     59.27% # Type of FU issued
system.cpu.iq.FU_type_0::SimdMisc                 707      0.00%     59.27% # Type of FU issued
system.cpu.iq.FU_type_0::SimdMult                   0      0.00%     59.27% # Type of FU issued
system.cpu.iq.FU_type_0::SimdMultAcc                0      0.00%     59.27% # Type of FU issued
system.cpu.iq.FU_type_0::SimdShift                  0      0.00%     59.27% # Type of FU issued
system.cpu.iq.FU_type_0::SimdShiftAcc               0      0.00%     59.27% # Type of FU issued
system.cpu.iq.FU_type_0::SimdSqrt                   0      0.00%     59.27% # Type of FU issued
system.cpu.iq.FU_type_0::SimdFloatAdd               0      0.00%     59.27% # Type of FU issued
system.cpu.iq.FU_type_0::SimdFloatAlu               0      0.00%     59.27% # Type of FU issued
system.cpu.iq.FU_type_0::SimdFloatCmp               0      0.00%     59.27% # Type of FU issued
system.cpu.iq.FU_type_0::SimdFloatCvt               0      0.00%     59.27% # Type of FU issued
system.cpu.iq.FU_type_0::SimdFloatDiv               0      0.00%     59.27% # Type of FU issued
system.cpu.iq.FU_type_0::SimdFloatMisc              0      0.00%     59.27% # Type of FU issued
system.cpu.iq.FU_type_0::SimdFloatMult              0      0.00%     59.27% # Type of FU issued
system.cpu.iq.FU_type_0::SimdFloatMultAcc            0      0.00%     59.27% # Type of FU issued
system.cpu.iq.FU_type_0::SimdFloatSqrt              0      0.00%     59.27% # Type of FU issued
system.cpu.iq.FU_type_0::MemRead            159037486     33.21%     92.48% # Type of FU issued
system.cpu.iq.FU_type_0::MemWrite            35985758      7.52%    100.00% # Type of FU issued
system.cpu.iq.FU_type_0::FloatMemRead               0      0.00%    100.00% # Type of FU issued
system.cpu.iq.FU_type_0::FloatMemWrite              0      0.00%    100.00% # Type of FU issued
system.cpu.iq.FU_type_0::IprAccess                  0      0.00%    100.00% # Type of FU issued
system.cpu.iq.FU_type_0::InstPrefetch               0      0.00%    100.00% # Type of FU issued
system.cpu.iq.FU_type_0::total              478815384                       # Type of FU issued
system.cpu.iq.rate                           1.729723                       # Inst issue rate
system.cpu.iq.fu_busy_cnt                    76093761                       # FU busy when requested
system.cpu.iq.fu_busy_rate                   0.158921                       # FU busy rate (busy events/executed inst)
system.cpu.iq.int_inst_queue_reads         1311473249                       # Number of integer instruction queue reads
system.cpu.iq.int_inst_queue_writes         605977497                       # Number of integer instruction queue writes
system.cpu.iq.int_inst_queue_wakeup_accesses    464587239                       # Number of integer instruction queue wakeup accesses
system.cpu.iq.fp_inst_queue_reads                   0                       # Number of floating instruction queue reads
system.cpu.iq.fp_inst_queue_writes                  0                       # Number of floating instruction queue writes
system.cpu.iq.fp_inst_queue_wakeup_accesses            0                       # Number of floating instruction queue wakeup accesses
system.cpu.iq.int_alu_accesses              554901508                       # Number of integer alu accesses
system.cpu.iq.fp_alu_accesses                       0                       # Number of floating point alu accesses
system.cpu.iew.lsq.thread0.forwLoads         56340401                       # Number of loads that had data forwarded from stores
system.cpu.iew.lsq.thread0.invAddrLoads             0                       # Number of loads ignored due to an invalid address
system.cpu.iew.lsq.thread0.squashedLoads     32511843                       # Number of loads squashed
system.cpu.iew.lsq.thread0.ignoredResponses       788295                       # Number of memory responses ignored because the instruction is squashed
system.cpu.iew.lsq.thread0.memOrderViolation         2173                       # Number of memory ordering violations
system.cpu.iew.lsq.thread0.squashedStores      7648451                       # Number of stores squashed
system.cpu.iew.lsq.thread0.invAddrSwpfs             0                       # Number of software prefetches ignored due to an invalid address
system.cpu.iew.lsq.thread0.blockedLoads             0                       # Number of blocked loads due to partial load-store forwarding
system.cpu.iew.lsq.thread0.rescheduledLoads          109                       # Number of loads that were rescheduled
system.cpu.iew.lsq.thread0.cacheBlocked            51                       # Number of times an access to memory failed due to the cache being blocked
system.cpu.iew.iewIdleCycles                        0                       # Number of cycles IEW is idle
system.cpu.iew.iewSquashCycles                3948044                       # Number of cycles IEW is squashing
system.cpu.iew.iewBlockCycles                 9754109                       # Number of cycles IEW is blocking
system.cpu.iew.iewUnblockCycles                    23                       # Number of cycles IEW is unblocking
system.cpu.iew.iewDispatchedInsts           506804999                       # Number of instructions dispatched to IQ
system.cpu.iew.iewDispSquashedInsts                 0                       # Number of squashed instructions skipped by dispatch
system.cpu.iew.iewDispLoadInsts             165648908                       # Number of dispatched load instructions
system.cpu.iew.iewDispStoreInsts             39703912                       # Number of dispatched store instructions
system.cpu.iew.iewDispNonSpecInsts                276                       # Number of dispatched non-speculative instructions
system.cpu.iew.iewIQFullEvents                      0                       # Number of times the IQ has become full, causing a stall
system.cpu.iew.iewLSQFullEvents                    23                       # Number of times the LSQ has become full, causing a stall
system.cpu.iew.memOrderViolationEvents           2173                       # Number of memory order violations
system.cpu.iew.predictedTakenIncorrect        2799985                       # Number of branches that were predicted taken incorrectly
system.cpu.iew.predictedNotTakenIncorrect      1156957                       # Number of branches that were predicted not taken incorrectly
system.cpu.iew.branchMispredicts              3956942                       # Number of branch mispredicts detected at execute
system.cpu.iew.iewExecutedInsts             469653386                       # Number of executed instructions
system.cpu.iew.iewExecLoadInsts             153414418                       # Number of load instructions executed
system.cpu.iew.iewExecSquashedInsts           9161998                       # Number of squashed instructions skipped in execute
system.cpu.iew.exec_swp                             0                       # number of swp insts executed
system.cpu.iew.exec_nop                           581                       # number of nop insts executed
system.cpu.iew.exec_refs                    188725481                       # number of memory reference insts executed
system.cpu.iew.exec_branches                 27105347                       # Number of branches executed
system.cpu.iew.exec_stores                   35311063                       # Number of stores executed
system.cpu.iew.exec_rate                     1.696625                       # Inst execution rate
system.cpu.iew.wb_sent                      466919898                       # cumulative count of insts sent to commit
system.cpu.iew.wb_count                     464592393                       # cumulative count of insts written-back
system.cpu.iew.wb_producers                 399735281                       # num instructions producing a value
system.cpu.iew.wb_consumers                 453631894                       # num instructions consuming a value
system.cpu.iew.wb_rate                       1.678342                       # insts written-back per cycle
system.cpu.iew.wb_fanout                     0.881189                       # average fanout of values written-back
system.cpu.commit.commitSquashedInsts        92026700                       # The number of squashed insts skipped by commit
system.cpu.commit.commitNonSpecStalls             228                       # The number of times commit has been forced to stall to communicate backwards
system.cpu.commit.branchMispredicts           3946305                       # The number of times a branch was mispredicted
system.cpu.commit.committed_per_cycle::samples    263078024                       # Number of insts commited each cycle
system.cpu.commit.committed_per_cycle::mean     1.549452                       # Number of insts commited each cycle
system.cpu.commit.committed_per_cycle::stdev     2.222615                       # Number of insts commited each cycle
system.cpu.commit.committed_per_cycle::underflows            0      0.00%      0.00% # Number of insts commited each cycle
system.cpu.commit.committed_per_cycle::0    131743027     50.08%     50.08% # Number of insts commited each cycle
system.cpu.commit.committed_per_cycle::1     59859935     22.75%     72.83% # Number of insts commited each cycle
system.cpu.commit.committed_per_cycle::2      5320986      2.02%     74.85% # Number of insts commited each cycle
system.cpu.commit.committed_per_cycle::3      6571353      2.50%     77.35% # Number of insts commited each cycle
system.cpu.commit.committed_per_cycle::4     23820550      9.05%     86.41% # Number of insts commited each cycle
system.cpu.commit.committed_per_cycle::5      8034864      3.05%     89.46% # Number of insts commited each cycle
system.cpu.commit.committed_per_cycle::6     16168824      6.15%     95.61% # Number of insts commited each cycle
system.cpu.commit.committed_per_cycle::7      7526629      2.86%     98.47% # Number of insts commited each cycle
system.cpu.commit.committed_per_cycle::8      4031856      1.53%    100.00% # Number of insts commited each cycle
system.cpu.commit.committed_per_cycle::overflows            0      0.00%    100.00% # Number of insts commited each cycle
system.cpu.commit.committed_per_cycle::min_value            0                       # Number of insts commited each cycle
system.cpu.commit.committed_per_cycle::max_value            8                       # Number of insts commited each cycle
system.cpu.commit.committed_per_cycle::total    263078024                       # Number of insts commited each cycle
system.cpu.commit.committedInsts            407615221                       # Number of instructions committed
system.cpu.commit.committedOps              407626681                       # Number of ops (including micro ops) committed
system.cpu.commit.swp_count                         0                       # Number of s/w prefetches committed
system.cpu.commit.refs                      165192526                       # Number of memory references committed
system.cpu.commit.loads                     133137065                       # Number of loads committed
system.cpu.commit.membars                         216                       # Number of memory barriers committed
system.cpu.commit.branches                   25363647                       # Number of branches committed
system.cpu.commit.vec_insts                      5148                       # Number of committed Vector instructions.
system.cpu.commit.fp_insts                          0                       # Number of committed floating point instructions.
system.cpu.commit.int_insts                 382368518                       # Number of committed integer instructions.
system.cpu.commit.function_calls                51392                       # Number of function calls committed.
system.cpu.commit.op_class_0::No_OpClass          202      0.00%      0.00% # Class of committed instruction
system.cpu.commit.op_class_0::IntAlu        242280514     59.44%     59.44% # Class of committed instruction
system.cpu.commit.op_class_0::IntMult          150503      0.04%     59.47% # Class of committed instruction
system.cpu.commit.op_class_0::IntDiv                2      0.00%     59.47% # Class of committed instruction
system.cpu.commit.op_class_0::FloatAdd              0      0.00%     59.47% # Class of committed instruction
system.cpu.commit.op_class_0::FloatCmp              0      0.00%     59.47% # Class of committed instruction
system.cpu.commit.op_class_0::FloatCvt              0      0.00%     59.47% # Class of committed instruction
system.cpu.commit.op_class_0::FloatMult             0      0.00%     59.47% # Class of committed instruction
system.cpu.commit.op_class_0::FloatMultAcc            0      0.00%     59.47% # Class of committed instruction
system.cpu.commit.op_class_0::FloatDiv              0      0.00%     59.47% # Class of committed instruction
system.cpu.commit.op_class_0::FloatMisc             0      0.00%     59.47% # Class of committed instruction
system.cpu.commit.op_class_0::FloatSqrt             0      0.00%     59.47% # Class of committed instruction
system.cpu.commit.op_class_0::SimdAdd             511      0.00%     59.47% # Class of committed instruction
system.cpu.commit.op_class_0::SimdAddAcc            0      0.00%     59.47% # Class of committed instruction
system.cpu.commit.op_class_0::SimdAlu             908      0.00%     59.47% # Class of committed instruction
system.cpu.commit.op_class_0::SimdCmp             808      0.00%     59.47% # Class of committed instruction
system.cpu.commit.op_class_0::SimdCvt               0      0.00%     59.47% # Class of committed instruction
system.cpu.commit.op_class_0::SimdMisc            707      0.00%     59.47% # Class of committed instruction
system.cpu.commit.op_class_0::SimdMult              0      0.00%     59.47% # Class of committed instruction
system.cpu.commit.op_class_0::SimdMultAcc            0      0.00%     59.47% # Class of committed instruction
system.cpu.commit.op_class_0::SimdShift             0      0.00%     59.47% # Class of committed instruction
system.cpu.commit.op_class_0::SimdShiftAcc            0      0.00%     59.47% # Class of committed instruction
system.cpu.commit.op_class_0::SimdSqrt              0      0.00%     59.47% # Class of committed instruction
system.cpu.commit.op_class_0::SimdFloatAdd            0      0.00%     59.47% # Class of committed instruction
system.cpu.commit.op_class_0::SimdFloatAlu            0      0.00%     59.47% # Class of committed instruction
system.cpu.commit.op_class_0::SimdFloatCmp            0      0.00%     59.47% # Class of committed instruction
system.cpu.commit.op_class_0::SimdFloatCvt            0      0.00%     59.47% # Class of committed instruction
system.cpu.commit.op_class_0::SimdFloatDiv            0      0.00%     59.47% # Class of committed instruction
[...]
system.l2.ReadCleanReq_miss_rate::cpu.inst     0.973171                       # miss rate for ReadCleanReq accesses
system.l2.ReadCleanReq_miss_rate::total      0.973171                       # miss rate for ReadCleanReq accesses
system.l2.ReadSharedReq_miss_rate::cpu.data     0.961538                       # miss rate for ReadSharedReq accesses
system.l2.ReadSharedReq_miss_rate::total     0.961538                       # miss rate for ReadSharedReq accesses
system.l2.demand_miss_rate::cpu.inst         0.973171                       # miss rate for demand accesses
system.l2.demand_miss_rate::cpu.data         0.750988                       # miss rate for demand accesses
system.l2.demand_miss_rate::total            0.888386                       # miss rate for demand accesses
system.l2.overall_miss_rate::cpu.inst        0.973171                       # miss rate for overall accesses
system.l2.overall_miss_rate::cpu.data        0.750988                       # miss rate for overall accesses
system.l2.overall_miss_rate::total           0.888386                       # miss rate for overall accesses
system.l2.ReadExReq_avg_miss_latency::cpu.data 120261.111111                       # average ReadExReq miss latency
system.l2.ReadExReq_avg_miss_latency::total 120261.111111                       # average ReadExReq miss latency
system.l2.ReadCleanReq_avg_miss_latency::cpu.inst 84558.897243                       # average ReadCleanReq miss latency
system.l2.ReadCleanReq_avg_miss_latency::total 84558.897243                       # average ReadCleanReq miss latency
system.l2.ReadSharedReq_avg_miss_latency::cpu.data       100980                       # average ReadSharedReq miss latency
system.l2.ReadSharedReq_avg_miss_latency::total       100980                       # average ReadSharedReq miss latency
system.l2.demand_avg_miss_latency::cpu.inst 84558.897243                       # average overall miss latency
system.l2.demand_avg_miss_latency::cpu.data 110113.157895                       # average overall miss latency
system.l2.demand_avg_miss_latency::total 92802.207131                       # average overall miss latency
system.l2.overall_avg_miss_latency::cpu.inst 84558.897243                       # average overall miss latency
system.l2.overall_avg_miss_latency::cpu.data 110113.157895                       # average overall miss latency
system.l2.overall_avg_miss_latency::total 92802.207131                       # average overall miss latency
system.l2.blocked_cycles::no_mshrs                  0                       # number of cycles access was blocked
system.l2.blocked_cycles::no_targets                0                       # number of cycles access was blocked
system.l2.blocked::no_mshrs                         0                       # number of cycles access was blocked
system.l2.blocked::no_targets                       0                       # number of cycles access was blocked
system.l2.avg_blocked_cycles::no_mshrs            nan                       # average number of cycles each access was blocked
system.l2.avg_blocked_cycles::no_targets          nan                       # average number of cycles each access was blocked
system.l2.ReadExReq_mshr_hits::cpu.data             1                       # number of ReadExReq MSHR hits
system.l2.ReadExReq_mshr_hits::total                1                       # number of ReadExReq MSHR hits
system.l2.ReadSharedReq_mshr_hits::cpu.data            4                       # number of ReadSharedReq MSHR hits
system.l2.ReadSharedReq_mshr_hits::total            4                       # number of ReadSharedReq MSHR hits
system.l2.demand_mshr_hits::cpu.data                5                       # number of demand (read+write) MSHR hits
system.l2.demand_mshr_hits::total                   5                       # number of demand (read+write) MSHR hits
system.l2.overall_mshr_hits::cpu.data               5                       # number of overall MSHR hits
system.l2.overall_mshr_hits::total                  5                       # number of overall MSHR hits
system.l2.HardPFReq_mshr_misses::l2.prefetcher          116                       # number of HardPFReq MSHR misses
system.l2.HardPFReq_mshr_misses::total            116                       # number of HardPFReq MSHR misses
system.l2.ReadExReq_mshr_misses::cpu.data           89                       # number of ReadExReq MSHR misses
system.l2.ReadExReq_mshr_misses::total             89                       # number of ReadExReq MSHR misses
system.l2.ReadCleanReq_mshr_misses::cpu.inst          399                       # number of ReadCleanReq MSHR misses
system.l2.ReadCleanReq_mshr_misses::total          399                       # number of ReadCleanReq MSHR misses
system.l2.ReadSharedReq_mshr_misses::cpu.data           96                       # number of ReadSharedReq MSHR misses
system.l2.ReadSharedReq_mshr_misses::total           96                       # number of ReadSharedReq MSHR misses
system.l2.demand_mshr_misses::cpu.inst            399                       # number of demand (read+write) MSHR misses
system.l2.demand_mshr_misses::cpu.data            185                       # number of demand (read+write) MSHR misses
system.l2.demand_mshr_misses::total               584                       # number of demand (read+write) MSHR misses
system.l2.overall_mshr_misses::cpu.inst           399                       # number of overall MSHR misses
system.l2.overall_mshr_misses::cpu.data           185                       # number of overall MSHR misses
system.l2.overall_mshr_misses::l2.prefetcher          116                       # number of overall MSHR misses
system.l2.overall_mshr_misses::total              700                       # number of overall MSHR misses
system.l2.HardPFReq_mshr_miss_latency::l2.prefetcher     16710111                       # number of HardPFReq MSHR miss cycles
system.l2.HardPFReq_mshr_miss_latency::total     16710111                       # number of HardPFReq MSHR miss cycles
system.l2.ReadExReq_mshr_miss_latency::cpu.data     10274000                       # number of ReadExReq MSHR miss cycles
system.l2.ReadExReq_mshr_miss_latency::total     10274000                       # number of ReadExReq MSHR miss cycles
system.l2.ReadCleanReq_mshr_miss_latency::cpu.inst     31351000                       # number of ReadCleanReq MSHR miss cycles
system.l2.ReadCleanReq_mshr_miss_latency::total     31351000                       # number of ReadCleanReq MSHR miss cycles
system.l2.ReadSharedReq_mshr_miss_latency::cpu.data      9181500                       # number of ReadSharedReq MSHR miss cycles
system.l2.ReadSharedReq_mshr_miss_latency::total      9181500                       # number of ReadSharedReq MSHR miss cycles
system.l2.demand_mshr_miss_latency::cpu.inst     31351000                       # number of demand (read+write) MSHR miss cycles
system.l2.demand_mshr_miss_latency::cpu.data     19455500                       # number of demand (read+write) MSHR miss cycles
system.l2.demand_mshr_miss_latency::total     50806500                       # number of demand (read+write) MSHR miss cycles
system.l2.overall_mshr_miss_latency::cpu.inst     31351000                       # number of overall MSHR miss cycles
system.l2.overall_mshr_miss_latency::cpu.data     19455500                       # number of overall MSHR miss cycles
system.l2.overall_mshr_miss_latency::l2.prefetcher     16710111                       # number of overall MSHR miss cycles
system.l2.overall_mshr_miss_latency::total     67516611                       # number of overall MSHR miss cycles
system.l2.HardPFReq_mshr_miss_rate::l2.prefetcher          inf                       # mshr miss rate for HardPFReq accesses
system.l2.HardPFReq_mshr_miss_rate::total          inf                       # mshr miss rate for HardPFReq accesses
system.l2.ReadExReq_mshr_miss_rate::cpu.data     0.597315                       # mshr miss rate for ReadExReq accesses
system.l2.ReadExReq_mshr_miss_rate::total     0.597315                       # mshr miss rate for ReadExReq accesses
system.l2.ReadCleanReq_mshr_miss_rate::cpu.inst     0.973171                       # mshr miss rate for ReadCleanReq accesses
system.l2.ReadCleanReq_mshr_miss_rate::total     0.973171                       # mshr miss rate for ReadCleanReq accesses
system.l2.ReadSharedReq_mshr_miss_rate::cpu.data     0.923077                       # mshr miss rate for ReadSharedReq accesses
system.l2.ReadSharedReq_mshr_miss_rate::total     0.923077                       # mshr miss rate for ReadSharedReq accesses
system.l2.demand_mshr_miss_rate::cpu.inst     0.973171                       # mshr miss rate for demand accesses
system.l2.demand_mshr_miss_rate::cpu.data     0.731225                       # mshr miss rate for demand accesses
system.l2.demand_mshr_miss_rate::total       0.880845                       # mshr miss rate for demand accesses
system.l2.overall_mshr_miss_rate::cpu.inst     0.973171                       # mshr miss rate for overall accesses
system.l2.overall_mshr_miss_rate::cpu.data     0.731225                       # mshr miss rate for overall accesses
system.l2.overall_mshr_miss_rate::l2.prefetcher          inf                       # mshr miss rate for overall accesses
system.l2.overall_mshr_miss_rate::total      1.055807                       # mshr miss rate for overall accesses
system.l2.HardPFReq_avg_mshr_miss_latency::l2.prefetcher 144052.681034                       # average HardPFReq mshr miss latency
system.l2.HardPFReq_avg_mshr_miss_latency::total 144052.681034                       # average HardPFReq mshr miss latency
system.l2.ReadExReq_avg_mshr_miss_latency::cpu.data 115438.202247                       # average ReadExReq mshr miss latency
system.l2.ReadExReq_avg_mshr_miss_latency::total 115438.202247                       # average ReadExReq mshr miss latency
system.l2.ReadCleanReq_avg_mshr_miss_latency::cpu.inst 78573.934837                       # average ReadCleanReq mshr miss latency
system.l2.ReadCleanReq_avg_mshr_miss_latency::total 78573.934837                       # average ReadCleanReq mshr miss latency
system.l2.ReadSharedReq_avg_mshr_miss_latency::cpu.data 95640.625000                       # average ReadSharedReq mshr miss latency
system.l2.ReadSharedReq_avg_mshr_miss_latency::total 95640.625000                       # average ReadSharedReq mshr miss latency
system.l2.demand_avg_mshr_miss_latency::cpu.inst 78573.934837                       # average overall mshr miss latency
system.l2.demand_avg_mshr_miss_latency::cpu.data 105164.864865                       # average overall mshr miss latency
system.l2.demand_avg_mshr_miss_latency::total 86997.431507                       # average overall mshr miss latency
system.l2.overall_avg_mshr_miss_latency::cpu.inst 78573.934837                       # average overall mshr miss latency
system.l2.overall_avg_mshr_miss_latency::cpu.data 105164.864865                       # average overall mshr miss latency
system.l2.overall_avg_mshr_miss_latency::l2.prefetcher 144052.681034                       # average overall mshr miss latency
system.l2.overall_avg_mshr_miss_latency::total 96452.301429                       # average overall mshr miss latency
system.membus.snoop_filter.tot_requests           678                       # Total number of requests made to the snoop filter.
system.membus.snoop_filter.hit_single_requests           14                       # Number of requests hitting in the snoop filter with a single holder of the requested data.
system.membus.snoop_filter.hit_multi_requests            0                       # Number of requests hitting in the snoop filter with multiple (>1) holders of the requested data.
system.membus.snoop_filter.tot_snoops               0                       # Total number of snoops made to the snoop filter.
system.membus.snoop_filter.hit_single_snoops            0                       # Number of snoops hitting in the snoop filter with a single holder of the requested data.
system.membus.snoop_filter.hit_multi_snoops            0                       # Number of snoops hitting in the snoop filter with multiple (>1) holders of the requested data.
system.membus.pwrStateResidencyTicks::UNDEFINED 138408146000                       # Cumulative time (in ticks) in various power states
system.membus.trans_dist::ReadResp                589                       # Transaction distribution
system.membus.trans_dist::ReadExReq                89                       # Transaction distribution
system.membus.trans_dist::ReadExResp               89                       # Transaction distribution
system.membus.trans_dist::ReadSharedReq           589                       # Transaction distribution
system.membus.pkt_count_system.l2.mem_side::system.mem_ctrls.port         1356                       # Packet count per connected master and slave (bytes)
system.membus.pkt_count::total                   1356                       # Packet count per connected master and slave (bytes)
system.membus.pkt_size_system.l2.mem_side::system.mem_ctrls.port        43392                       # Cumulative packet size per connected master and slave (bytes)
system.membus.pkt_size::total                   43392                       # Cumulative packet size per connected master and slave (bytes)
system.membus.snoops                                0                       # Total snoops (count)
system.membus.snoopTraffic                          0                       # Total snoop traffic (bytes)
system.membus.snoop_fanout::samples               678                       # Request fanout histogram
system.membus.snoop_fanout::mean                    0                       # Request fanout histogram
system.membus.snoop_fanout::stdev                   0                       # Request fanout histogram
system.membus.snoop_fanout::underflows              0      0.00%      0.00% # Request fanout histogram
system.membus.snoop_fanout::0                     678    100.00%    100.00% # Request fanout histogram
system.membus.snoop_fanout::1                       0      0.00%    100.00% # Request fanout histogram
system.membus.snoop_fanout::overflows               0      0.00%    100.00% # Request fanout histogram
system.membus.snoop_fanout::min_value               0                       # Request fanout histogram
system.membus.snoop_fanout::max_value               0                       # Request fanout histogram
system.membus.snoop_fanout::total                 678                       # Request fanout histogram
system.membus.reqLayer0.occupancy              851660                       # Layer occupancy (ticks)
system.membus.reqLayer0.utilization               0.0                       # Layer utilization (%)
system.membus.respLayer1.occupancy            3584757                       # Layer occupancy (ticks)
system.membus.respLayer1.utilization              0.0                       # Layer utilization (%)
system.tol2bus.snoop_filter.tot_requests          740                       # Total number of requests made to the snoop filter.
system.tol2bus.snoop_filter.hit_single_requests           89                       # Number of requests hitting in the snoop filter with a single holder of the requested data.
system.tol2bus.snoop_filter.hit_multi_requests            3                       # Number of requests hitting in the snoop filter with multiple (>1) holders of the requested data.
system.tol2bus.snoop_filter.tot_snoops             21                       # Total number of snoops made to the snoop filter.
system.tol2bus.snoop_filter.hit_single_snoops           21                       # Number of snoops hitting in the snoop filter with a single holder of the requested data.
system.tol2bus.snoop_filter.hit_multi_snoops            0                       # Number of snoops hitting in the snoop filter with multiple (>1) holders of the requested data.
system.tol2bus.pwrStateResidencyTicks::UNDEFINED 138408146000                       # Cumulative time (in ticks) in various power states
system.tol2bus.trans_dist::ReadResp               513                       # Transaction distribution
system.tol2bus.trans_dist::WritebackClean           77                       # Transaction distribution
system.tol2bus.trans_dist::HardPFReq              156                       # Transaction distribution
system.tol2bus.trans_dist::ReadExReq              149                       # Transaction distribution
system.tol2bus.trans_dist::ReadExResp             149                       # Transaction distribution
system.tol2bus.trans_dist::ReadCleanReq           410                       # Transaction distribution
system.tol2bus.trans_dist::ReadSharedReq          104                       # Transaction distribution
system.tol2bus.pkt_count_system.cpu.icache.mem_side::system.l2.cpu_side          894                       # Packet count per connected master and slave (bytes)
system.tol2bus.pkt_count_system.cpu.dcache.mem_side::system.l2.cpu_side          508                       # Packet count per connected master and slave (bytes)
system.tol2bus.pkt_count::total                  1402                       # Packet count per connected master and slave (bytes)
system.tol2bus.pkt_size_system.cpu.icache.mem_side::system.l2.cpu_side        30976                       # Cumulative packet size per connected master and slave (bytes)
system.tol2bus.pkt_size_system.cpu.dcache.mem_side::system.l2.cpu_side        16320                       # Cumulative packet size per connected master and slave (bytes)
system.tol2bus.pkt_size::total                  47296                       # Cumulative packet size per connected master and slave (bytes)
system.tol2bus.snoops                             156                       # Total snoops (count)
system.tol2bus.snoopTraffic                         0                       # Total snoop traffic (bytes)
system.tol2bus.snoop_fanout::samples              819                       # Request fanout histogram
system.tol2bus.snoop_fanout::mean            0.043956                       # Request fanout histogram
system.tol2bus.snoop_fanout::stdev           0.205123                       # Request fanout histogram
system.tol2bus.snoop_fanout::underflows             0      0.00%      0.00% # Request fanout histogram
system.tol2bus.snoop_fanout::0                    783     95.60%     95.60% # Request fanout histogram
system.tol2bus.snoop_fanout::1                     36      4.40%    100.00% # Request fanout histogram
system.tol2bus.snoop_fanout::2                      0      0.00%    100.00% # Request fanout histogram
system.tol2bus.snoop_fanout::3                      0      0.00%    100.00% # Request fanout histogram
system.tol2bus.snoop_fanout::4                      0      0.00%    100.00% # Request fanout histogram
system.tol2bus.snoop_fanout::overflows              0      0.00%    100.00% # Request fanout histogram
system.tol2bus.snoop_fanout::min_value              0                       # Request fanout histogram
system.tol2bus.snoop_fanout::max_value              1                       # Request fanout histogram
system.tol2bus.snoop_fanout::total                819                       # Request fanout histogram
system.tol2bus.reqLayer0.occupancy             447000                       # Layer occupancy (ticks)
system.tol2bus.reqLayer0.utilization              0.0                       # Layer utilization (%)
system.tol2bus.respLayer0.occupancy            613500                       # Layer occupancy (ticks)
system.tol2bus.respLayer0.utilization             0.0                       # Layer utilization (%)
system.tol2bus.respLayer1.occupancy            379999                       # Layer occupancy (ticks)
system.tol2bus.respLayer1.utilization             0.0                       # Layer utilization (%)

---------- End Simulation Statistics   ----------
